<?xml version="1.0" encoding="UTF-8"?>

<!-- generated on 10/20/18 14:48:41 by Eclipse SUMO netedit Version 1.0.1
<configuration xmlns:xsi="http://www.w3.org/2001/XMLSchema-instance" xsi:noNamespaceSchemaLocation="http://sumo.dlr.de/xsd/netconvertConfiguration.xsd">

    <output>
        <output-file value="D:\Louis\Documenten\dev\APS_TrafficProject\complex_network_3.net.xml"/>
    </output>

    <processing>
        <offset.disable-normalization value="true"/>
    </processing>

    <junctions>
        <no-turnarounds value="true"/>
    </junctions>

</configuration>
-->

<net version="1.0" junctionCornerDetail="5" limitTurnSpeed="5.50" xmlns:xsi="http://www.w3.org/2001/XMLSchema-instance" xsi:noNamespaceSchemaLocation="http://sumo.dlr.de/xsd/net_file.xsd">

    <location netOffset="0.00,0.00" convBoundary="-400.00,-900.00,1200.00,900.00" origBoundary="10000000000.00,10000000000.00,-10000000000.00,-10000000000.00" projParameter="!"/>

    <edge id=":gneJ1_0" function="internal">
        <lane id=":gneJ1_0_0" index="0" speed="10.77" length="10.63" shape="10.58,17.37 7.73,14.67 5.37,12.74 3.49,11.59 2.09,11.20"/>
    </edge>
    <edge id=":gneJ1_1" function="internal">
        <lane id=":gneJ1_1_0" index="0" speed="11.72" length="12.67" shape="10.58,17.37 9.09,15.60 6.44,12.42 3.74,9.36 2.09,8.00"/>
    </edge>
    <edge id=":gneJ1_2" function="internal">
        <lane id=":gneJ1_2_0" index="0" speed="13.33" length="16.50" shape="10.58,17.37 5.33,11.87 2.17,7.94 1.09,5.59 2.09,4.80"/>
    </edge>
    <edge id=":gneJ1_3" function="internal">
        <lane id=":gneJ1_3_0" index="0" speed="12.21" length="34.45" shape="12.84,15.10 7.18,7.55 5.29,0.00 7.18,-7.55 12.84,-15.10"/>
    </edge>
    <edge id=":gneJ1_4" function="internal">
        <lane id=":gneJ1_4_0" index="0" speed="8.43" length="25.37" shape="12.84,15.10 8.70,9.01 7.25,2.50 8.99,-2.68 14.46,-4.80"/>
    </edge>
    <edge id=":gneJ1_5" function="internal">
        <lane id=":gneJ1_5_0" index="0" speed="8.00" length="22.70" shape="12.84,15.10 8.70,9.51 7.25,4.10 8.99,0.02 14.46,-1.60"/>
    </edge>
    <edge id=":gneJ1_6" function="internal">
        <lane id=":gneJ1_6_0" index="0" speed="80.00" length="12.36" shape="14.46,11.20 2.09,11.20"/>
        <lane id=":gneJ1_6_1" index="1" speed="80.00" length="12.36" shape="14.46,8.00 2.09,8.00"/>
        <lane id=":gneJ1_6_2" index="2" speed="80.00" length="12.36" shape="14.46,4.80 2.09,4.80"/>
        <lane id=":gneJ1_6_3" index="3" speed="80.00" length="12.36" shape="14.46,1.60 2.09,1.60"/>
    </edge>
    <edge id=":gneJ1_10" function="internal">
        <lane id=":gneJ1_10_0" index="0" speed="8.00" length="5.70" shape="14.46,1.60 8.99,-0.02"/>
    </edge>
    <edge id=":gneJ1_16" function="internal">
        <lane id=":gneJ1_16_0" index="0" speed="8.00" length="17.00" shape="8.99,-0.02 7.25,-4.10 8.70,-9.51 12.84,-15.10"/>
    </edge>
    <edge id=":gneJ1_11" function="internal">
        <lane id=":gneJ1_11_0" index="0" speed="10.77" length="10.63" shape="2.09,-11.20 3.49,-11.59 5.37,-12.74 7.73,-14.67 10.58,-17.37"/>
    </edge>
    <edge id=":gneJ1_12" function="internal">
        <lane id=":gneJ1_12_0" index="0" speed="80.00" length="12.36" shape="2.09,-11.20 14.46,-11.20"/>
        <lane id=":gneJ1_12_1" index="1" speed="80.00" length="12.36" shape="2.09,-8.00 14.46,-8.00"/>
        <lane id=":gneJ1_12_2" index="2" speed="80.00" length="12.36" shape="2.09,-4.80 14.46,-4.80"/>
        <lane id=":gneJ1_12_3" index="3" speed="80.00" length="12.36" shape="2.09,-1.60 14.46,-1.60"/>
    </edge>
    <edge id=":gneJ11_0" function="internal">
        <lane id=":gneJ11_0_0" index="0" speed="6.51" length="9.03" shape="395.20,210.40 394.85,207.95 393.80,206.20 392.05,205.15 389.60,204.80"/>
    </edge>
    <edge id=":gneJ11_1" function="internal">
        <lane id=":gneJ11_1_0" index="0" speed="60.00" length="14.40" shape="395.20,210.40 395.20,196.00"/>
        <lane id=":gneJ11_1_1" index="1" speed="60.00" length="14.40" shape="398.40,210.40 398.40,196.00"/>
    </edge>
    <edge id=":gneJ11_3" function="internal">
        <lane id=":gneJ11_3_0" index="0" speed="6.51" length="9.03" shape="410.40,204.80 407.95,205.15 406.20,206.20 405.15,207.95 404.80,210.40"/>
    </edge>
    <edge id=":gneJ11_4" function="internal">
        <lane id=":gneJ11_4_0" index="0" speed="60.00" length="20.80" shape="410.40,204.80 389.60,204.80"/>
        <lane id=":gneJ11_4_1" index="1" speed="60.00" length="20.80" shape="410.40,201.60 389.60,201.60"/>
    </edge>
    <edge id=":gneJ11_6" function="internal">
        <lane id=":gneJ11_6_0" index="0" speed="8.10" length="14.57" shape="410.40,201.60 405.15,201.25 401.40,200.20 399.15,198.45 398.40,196.00"/>
    </edge>
    <edge id=":gneJ11_7" function="internal">
        <lane id=":gneJ11_7_0" index="0" speed="60.00" length="14.40" shape="404.80,196.00 404.80,210.40"/>
        <lane id=":gneJ11_7_1" index="1" speed="60.00" length="14.40" shape="401.60,196.00 401.60,210.40"/>
    </edge>
    <edge id=":gneJ11_9" function="internal">
        <lane id=":gneJ11_9_0" index="0" speed="8.10" length="3.64" shape="401.60,196.00 400.85,198.45 400.00,199.11"/>
    </edge>
    <edge id=":gneJ11_10" function="internal">
        <lane id=":gneJ11_10_0" index="0" speed="8.10" length="10.93" shape="400.00,199.11 398.60,200.20 394.85,201.25 389.60,201.60"/>
    </edge>
    <edge id=":gneJ12_0" function="internal">
        <lane id=":gneJ12_0_0" index="0" speed="6.51" length="9.03" shape="395.20,-589.60 394.85,-592.05 393.80,-593.80 392.05,-594.85 389.60,-595.20"/>
    </edge>
    <edge id=":gneJ12_1" function="internal">
        <lane id=":gneJ12_1_0" index="0" speed="60.00" length="20.80" shape="395.20,-589.60 395.20,-610.40"/>
        <lane id=":gneJ12_1_1" index="1" speed="60.00" length="20.80" shape="398.40,-589.60 398.40,-610.40"/>
    </edge>
    <edge id=":gneJ12_3" function="internal">
        <lane id=":gneJ12_3_0" index="0" speed="9.26" length="6.96" shape="398.40,-589.60 399.15,-594.85 400.00,-596.27"/>
    </edge>
    <edge id=":gneJ12_16" function="internal">
        <lane id=":gneJ12_16_0" index="0" speed="9.26" length="12.40" shape="400.00,-596.27 401.40,-598.60 405.15,-600.85 410.40,-601.60"/>
    </edge>
    <edge id=":gneJ12_4" function="internal">
        <lane id=":gneJ12_4_0" index="0" speed="6.51" length="9.03" shape="410.40,-595.20 407.95,-594.85 406.20,-593.80 405.15,-592.05 404.80,-589.60"/>
    </edge>
    <edge id=":gneJ12_5" function="internal">
        <lane id=":gneJ12_5_0" index="0" speed="60.00" length="20.80" shape="410.40,-595.20 389.60,-595.20"/>
        <lane id=":gneJ12_5_1" index="1" speed="60.00" length="20.80" shape="410.40,-598.40 389.60,-598.40"/>
    </edge>
    <edge id=":gneJ12_7" function="internal">
        <lane id=":gneJ12_7_0" index="0" speed="9.26" length="6.96" shape="410.40,-598.40 405.15,-599.15 403.73,-600.00"/>
    </edge>
    <edge id=":gneJ12_17" function="internal">
        <lane id=":gneJ12_17_0" index="0" speed="9.26" length="12.40" shape="403.73,-600.00 401.40,-601.40 399.15,-605.15 398.40,-610.40"/>
    </edge>
    <edge id=":gneJ12_8" function="internal">
        <lane id=":gneJ12_8_0" index="0" speed="6.51" length="9.03" shape="404.80,-610.40 405.15,-607.95 406.20,-606.20 407.95,-605.15 410.40,-604.80"/>
    </edge>
    <edge id=":gneJ12_9" function="internal">
        <lane id=":gneJ12_9_0" index="0" speed="60.00" length="20.80" shape="404.80,-610.40 404.80,-589.60"/>
        <lane id=":gneJ12_9_1" index="1" speed="60.00" length="20.80" shape="401.60,-610.40 401.60,-589.60"/>
    </edge>
    <edge id=":gneJ12_11" function="internal">
        <lane id=":gneJ12_11_0" index="0" speed="9.26" length="6.96" shape="401.60,-610.40 400.85,-605.15 400.00,-603.73"/>
    </edge>
    <edge id=":gneJ12_18" function="internal">
        <lane id=":gneJ12_18_0" index="0" speed="9.26" length="12.40" shape="400.00,-603.73 398.60,-601.40 394.85,-599.15 389.60,-598.40"/>
    </edge>
    <edge id=":gneJ12_12" function="internal">
        <lane id=":gneJ12_12_0" index="0" speed="6.51" length="9.03" shape="389.60,-604.80 392.05,-605.15 393.80,-606.20 394.85,-607.95 395.20,-610.40"/>
    </edge>
    <edge id=":gneJ12_13" function="internal">
        <lane id=":gneJ12_13_0" index="0" speed="60.00" length="20.80" shape="389.60,-604.80 410.40,-604.80"/>
        <lane id=":gneJ12_13_1" index="1" speed="60.00" length="20.80" shape="389.60,-601.60 410.40,-601.60"/>
    </edge>
    <edge id=":gneJ12_15" function="internal">
        <lane id=":gneJ12_15_0" index="0" speed="9.26" length="6.96" shape="389.60,-601.60 394.85,-600.85 396.27,-600.00"/>
    </edge>
    <edge id=":gneJ12_19" function="internal">
        <lane id=":gneJ12_19_0" index="0" speed="9.26" length="12.40" shape="396.27,-600.00 398.60,-598.60 400.85,-594.85 401.60,-589.60"/>
    </edge>
    <edge id=":gneJ18_0" function="internal">
        <lane id=":gneJ18_0_0" index="0" speed="30.00" length="14.40" shape="598.40,-292.80 598.40,-307.20"/>
    </edge>
    <edge id=":gneJ18_1" function="internal">
        <lane id=":gneJ18_1_0" index="0" speed="8.00" length="14.19" shape="598.40,-292.80 598.95,-296.65 600.60,-299.40 603.35,-301.05 607.20,-301.60"/>
    </edge>
    <edge id=":gneJ18_2" function="internal">
        <lane id=":gneJ18_2_0" index="0" speed="6.51" length="9.03" shape="607.20,-298.40 604.75,-298.05 603.00,-297.00 601.95,-295.25 601.60,-292.80"/>
    </edge>
    <edge id=":gneJ18_3" function="internal">
        <lane id=":gneJ18_3_0" index="0" speed="8.00" length="14.19" shape="607.20,-298.40 603.35,-298.95 600.60,-300.60 598.95,-303.35 598.40,-307.20"/>
    </edge>
    <edge id=":gneJ18_4" function="internal">
        <lane id=":gneJ18_4_0" index="0" speed="6.51" length="9.03" shape="601.60,-307.20 601.95,-304.75 603.00,-303.00 604.75,-301.95 607.20,-301.60"/>
    </edge>
    <edge id=":gneJ18_5" function="internal">
        <lane id=":gneJ18_5_0" index="0" speed="30.00" length="14.40" shape="601.60,-307.20 601.60,-292.80"/>
    </edge>
    <edge id=":gneJ19_0" function="internal">
        <lane id=":gneJ19_0_0" index="0" speed="6.08" length="7.74" shape="598.40,-396.80 598.70,-398.90 599.60,-400.40 601.10,-401.30 603.20,-401.60"/>
    </edge>
    <edge id=":gneJ19_1" function="internal">
        <lane id=":gneJ19_1_0" index="0" speed="3.90" length="2.58" shape="603.20,-398.40 602.50,-398.30 602.00,-398.00 601.70,-397.50 601.60,-396.80"/>
    </edge>
    <edge id=":gneJ2_0" function="internal">
        <lane id=":gneJ2_0_0" index="0" speed="6.51" length="9.03" shape="201.60,-210.40 201.95,-207.95 203.00,-206.20 204.75,-205.15 207.20,-204.80"/>
    </edge>
    <edge id=":gneJ2_1" function="internal">
        <lane id=":gneJ2_1_0" index="0" speed="11.02" length="11.15" shape="193.78,-200.57 195.80,-202.91 197.24,-205.34 198.11,-207.83 198.40,-210.40"/>
    </edge>
    <edge id=":gneJ2_2" function="internal">
        <lane id=":gneJ2_2_0" index="0" speed="11.38" length="11.91" shape="196.04,-198.30 197.97,-199.75 200.48,-200.78 203.55,-201.39 207.20,-201.60"/>
    </edge>
    <edge id=":gneJ22_0" function="internal">
        <lane id=":gneJ22_0_0" index="0" speed="6.51" length="9.03" shape="198.40,-292.80 198.05,-295.25 197.00,-297.00 195.25,-298.05 192.80,-298.40"/>
    </edge>
    <edge id=":gneJ22_1" function="internal">
        <lane id=":gneJ22_1_0" index="0" speed="30.00" length="14.40" shape="198.40,-292.80 198.40,-307.20"/>
    </edge>
    <edge id=":gneJ22_2" function="internal">
        <lane id=":gneJ22_2_0" index="0" speed="30.00" length="14.40" shape="201.60,-307.20 201.60,-292.80"/>
    </edge>
    <edge id=":gneJ22_3" function="internal">
        <lane id=":gneJ22_3_0" index="0" speed="8.00" length="14.19" shape="201.60,-307.20 201.05,-303.35 199.40,-300.60 196.65,-298.95 192.80,-298.40"/>
    </edge>
    <edge id=":gneJ22_4" function="internal">
        <lane id=":gneJ22_4_0" index="0" speed="6.51" length="9.03" shape="192.80,-301.60 195.25,-301.95 197.00,-303.00 198.05,-304.75 198.40,-307.20"/>
    </edge>
    <edge id=":gneJ22_5" function="internal">
        <lane id=":gneJ22_5_0" index="0" speed="8.00" length="4.12" shape="192.80,-301.60 196.65,-301.05 196.85,-300.93"/>
    </edge>
    <edge id=":gneJ22_6" function="internal">
        <lane id=":gneJ22_6_0" index="0" speed="8.00" length="10.08" shape="196.85,-300.93 199.40,-299.40 201.05,-296.65 201.60,-292.80"/>
    </edge>
    <edge id=":gneJ24_0" function="internal">
        <lane id=":gneJ24_0_0" index="0" speed="3.90" length="2.58" shape="198.40,-396.80 198.30,-397.50 198.00,-398.00 197.50,-398.30 196.80,-398.40"/>
    </edge>
    <edge id=":gneJ24_1" function="internal">
        <lane id=":gneJ24_1_0" index="0" speed="6.08" length="7.74" shape="196.80,-401.60 198.90,-401.30 200.40,-400.40 201.30,-398.90 201.60,-396.80"/>
    </edge>
    <edge id=":gneJ26_0" function="internal">
        <lane id=":gneJ26_0_0" index="0" speed="6.51" length="9.03" shape="395.20,610.40 394.85,607.95 393.80,606.20 392.05,605.15 389.60,604.80"/>
    </edge>
    <edge id=":gneJ26_1" function="internal">
        <lane id=":gneJ26_1_0" index="0" speed="60.00" length="20.80" shape="395.20,610.40 395.20,589.60"/>
        <lane id=":gneJ26_1_1" index="1" speed="60.00" length="20.80" shape="398.40,610.40 398.40,589.60"/>
    </edge>
    <edge id=":gneJ26_3" function="internal">
        <lane id=":gneJ26_3_0" index="0" speed="9.26" length="6.96" shape="398.40,610.40 399.15,605.15 400.00,603.73"/>
    </edge>
    <edge id=":gneJ26_16" function="internal">
        <lane id=":gneJ26_16_0" index="0" speed="9.26" length="12.40" shape="400.00,603.73 401.40,601.40 405.15,599.15 410.40,598.40"/>
    </edge>
    <edge id=":gneJ26_4" function="internal">
        <lane id=":gneJ26_4_0" index="0" speed="6.51" length="9.03" shape="410.40,604.80 407.95,605.15 406.20,606.20 405.15,607.95 404.80,610.40"/>
    </edge>
    <edge id=":gneJ26_5" function="internal">
        <lane id=":gneJ26_5_0" index="0" speed="60.00" length="20.80" shape="410.40,604.80 389.60,604.80"/>
        <lane id=":gneJ26_5_1" index="1" speed="60.00" length="20.80" shape="410.40,601.60 389.60,601.60"/>
    </edge>
    <edge id=":gneJ26_7" function="internal">
        <lane id=":gneJ26_7_0" index="0" speed="9.26" length="6.96" shape="410.40,601.60 405.15,600.85 403.73,600.00"/>
    </edge>
    <edge id=":gneJ26_17" function="internal">
        <lane id=":gneJ26_17_0" index="0" speed="9.26" length="12.40" shape="403.73,600.00 401.40,598.60 399.15,594.85 398.40,589.60"/>
    </edge>
    <edge id=":gneJ26_8" function="internal">
        <lane id=":gneJ26_8_0" index="0" speed="6.51" length="9.03" shape="404.80,589.60 405.15,592.05 406.20,593.80 407.95,594.85 410.40,595.20"/>
    </edge>
    <edge id=":gneJ26_9" function="internal">
        <lane id=":gneJ26_9_0" index="0" speed="60.00" length="20.80" shape="404.80,589.60 404.80,610.40"/>
        <lane id=":gneJ26_9_1" index="1" speed="60.00" length="20.80" shape="401.60,589.60 401.60,610.40"/>
    </edge>
    <edge id=":gneJ26_11" function="internal">
        <lane id=":gneJ26_11_0" index="0" speed="9.26" length="6.96" shape="401.60,589.60 400.85,594.85 400.00,596.27"/>
    </edge>
    <edge id=":gneJ26_18" function="internal">
        <lane id=":gneJ26_18_0" index="0" speed="9.26" length="12.40" shape="400.00,596.27 398.60,598.60 394.85,600.85 389.60,601.60"/>
    </edge>
    <edge id=":gneJ26_12" function="internal">
        <lane id=":gneJ26_12_0" index="0" speed="6.51" length="9.03" shape="389.60,595.20 392.05,594.85 393.80,593.80 394.85,592.05 395.20,589.60"/>
    </edge>
    <edge id=":gneJ26_13" function="internal">
        <lane id=":gneJ26_13_0" index="0" speed="60.00" length="20.80" shape="389.60,595.20 410.40,595.20"/>
        <lane id=":gneJ26_13_1" index="1" speed="60.00" length="20.80" shape="389.60,598.40 410.40,598.40"/>
    </edge>
    <edge id=":gneJ26_15" function="internal">
        <lane id=":gneJ26_15_0" index="0" speed="9.26" length="6.96" shape="389.60,598.40 394.85,599.15 396.27,600.00"/>
    </edge>
    <edge id=":gneJ26_19" function="internal">
        <lane id=":gneJ26_19_0" index="0" speed="9.26" length="12.40" shape="396.27,600.00 398.60,601.40 400.85,605.15 401.60,610.40"/>
    </edge>
    <edge id=":gneJ32_0" function="internal">
        <lane id=":gneJ32_0_0" index="0" speed="6.51" length="9.03" shape="198.40,307.20 198.05,304.75 197.00,303.00 195.25,301.95 192.80,301.60"/>
    </edge>
    <edge id=":gneJ32_1" function="internal">
        <lane id=":gneJ32_1_0" index="0" speed="30.00" length="14.40" shape="198.40,307.20 198.40,292.80"/>
    </edge>
    <edge id=":gneJ32_2" function="internal">
        <lane id=":gneJ32_2_0" index="0" speed="30.00" length="14.40" shape="201.60,292.80 201.60,307.20"/>
    </edge>
    <edge id=":gneJ32_3" function="internal">
        <lane id=":gneJ32_3_0" index="0" speed="8.00" length="14.19" shape="201.60,292.80 201.05,296.65 199.40,299.40 196.65,301.05 192.80,301.60"/>
    </edge>
    <edge id=":gneJ32_4" function="internal">
        <lane id=":gneJ32_4_0" index="0" speed="6.51" length="9.03" shape="192.80,298.40 195.25,298.05 197.00,297.00 198.05,295.25 198.40,292.80"/>
    </edge>
    <edge id=":gneJ32_5" function="internal">
        <lane id=":gneJ32_5_0" index="0" speed="8.00" length="14.19" shape="192.80,298.40 196.65,298.95 199.40,300.60 201.05,303.35 201.60,307.20"/>
    </edge>
    <edge id=":gneJ34_0" function="internal">
        <lane id=":gneJ34_0_0" index="0" speed="6.08" length="7.74" shape="201.60,396.80 201.30,398.90 200.40,400.40 198.90,401.30 196.80,401.60"/>
    </edge>
    <edge id=":gneJ34_1" function="internal">
        <lane id=":gneJ34_1_0" index="0" speed="3.90" length="2.58" shape="196.80,398.40 197.50,398.30 198.00,398.00 198.30,397.50 198.40,396.80"/>
    </edge>
    <edge id=":gneJ37_0" function="internal">
        <lane id=":gneJ37_0_0" index="0" speed="30.00" length="14.40" shape="598.40,307.20 598.40,292.80"/>
    </edge>
    <edge id=":gneJ37_1" function="internal">
        <lane id=":gneJ37_1_0" index="0" speed="8.00" length="14.19" shape="598.40,307.20 598.95,303.35 600.60,300.60 603.35,298.95 607.20,298.40"/>
    </edge>
    <edge id=":gneJ37_2" function="internal">
        <lane id=":gneJ37_2_0" index="0" speed="6.51" length="9.03" shape="607.20,301.60 604.75,301.95 603.00,303.00 601.95,304.75 601.60,307.20"/>
    </edge>
    <edge id=":gneJ37_3" function="internal">
        <lane id=":gneJ37_3_0" index="0" speed="8.00" length="4.12" shape="607.20,301.60 603.35,301.05 603.15,300.93"/>
    </edge>
    <edge id=":gneJ37_6" function="internal">
        <lane id=":gneJ37_6_0" index="0" speed="8.00" length="10.08" shape="603.15,300.93 600.60,299.40 598.95,296.65 598.40,292.80"/>
    </edge>
    <edge id=":gneJ37_4" function="internal">
        <lane id=":gneJ37_4_0" index="0" speed="6.51" length="9.03" shape="601.60,292.80 601.95,295.25 603.00,297.00 604.75,298.05 607.20,298.40"/>
    </edge>
    <edge id=":gneJ37_5" function="internal">
        <lane id=":gneJ37_5_0" index="0" speed="30.00" length="14.40" shape="601.60,292.80 601.60,307.20"/>
    </edge>
    <edge id=":gneJ39_0" function="internal">
        <lane id=":gneJ39_0_0" index="0" speed="6.08" length="7.74" shape="603.20,401.60 601.10,401.30 599.60,400.40 598.70,398.90 598.40,396.80"/>
    </edge>
    <edge id=":gneJ39_1" function="internal">
        <lane id=":gneJ39_1_0" index="0" speed="3.90" length="2.58" shape="601.60,396.80 601.70,397.50 602.00,398.00 602.50,398.30 603.20,398.40"/>
    </edge>
    <edge id=":gneJ4_0" function="internal">
        <lane id=":gneJ4_0_0" index="0" speed="11.02" length="11.15" shape="601.60,-210.40 601.89,-207.83 602.76,-205.34 604.20,-202.91 606.22,-200.57"/>
    </edge>
    <edge id=":gneJ4_1" function="internal">
        <lane id=":gneJ4_1_0" index="0" speed="6.51" length="9.03" shape="592.80,-204.80 595.25,-205.15 597.00,-206.20 598.05,-207.95 598.40,-210.40"/>
    </edge>
    <edge id=":gneJ4_2" function="internal">
        <lane id=":gneJ4_2_0" index="0" speed="12.48" length="14.42" shape="592.80,-204.80 597.08,-204.54 600.75,-203.74 603.80,-202.42 606.22,-200.57"/>
    </edge>
    <edge id=":gneJ4_3" function="internal">
        <lane id=":gneJ4_3_0" index="0" speed="11.38" length="11.91" shape="592.80,-201.60 596.45,-201.39 599.52,-200.78 602.03,-199.75 603.96,-198.30"/>
    </edge>
    <edge id=":gneJ5_0" function="internal">
        <lane id=":gneJ5_0_0" index="0" speed="10.77" length="10.63" shape="797.91,11.20 796.51,11.59 794.63,12.74 792.27,14.67 789.42,17.37"/>
    </edge>
    <edge id=":gneJ5_1" function="internal">
        <lane id=":gneJ5_1_0" index="0" speed="80.00" length="12.36" shape="797.91,11.20 785.54,11.20"/>
        <lane id=":gneJ5_1_1" index="1" speed="80.00" length="12.36" shape="797.91,8.00 785.54,8.00"/>
        <lane id=":gneJ5_1_2" index="2" speed="80.00" length="12.36" shape="797.91,4.80 785.54,4.80"/>
        <lane id=":gneJ5_1_3" index="3" speed="80.00" length="12.36" shape="797.91,1.60 785.54,1.60"/>
    </edge>
    <edge id=":gneJ5_5" function="internal">
        <lane id=":gneJ5_5_0" index="0" speed="10.77" length="10.63" shape="789.42,-17.37 792.27,-14.67 794.63,-12.74 796.51,-11.59 797.91,-11.20"/>
    </edge>
    <edge id=":gneJ5_6" function="internal">
        <lane id=":gneJ5_6_0" index="0" speed="11.72" length="12.67" shape="789.42,-17.37 790.91,-15.60 793.56,-12.42 796.26,-9.36 797.91,-8.00"/>
    </edge>
    <edge id=":gneJ5_7" function="internal">
        <lane id=":gneJ5_7_0" index="0" speed="13.33" length="16.50" shape="789.42,-17.37 794.67,-11.87 797.83,-7.94 798.91,-5.59 797.91,-4.80"/>
    </edge>
    <edge id=":gneJ5_8" function="internal">
        <lane id=":gneJ5_8_0" index="0" speed="12.21" length="34.45" shape="787.16,-15.10 792.82,-7.55 794.71,-0.00 792.82,7.55 787.16,15.10"/>
    </edge>
    <edge id=":gneJ5_9" function="internal">
        <lane id=":gneJ5_9_0" index="0" speed="8.43" length="25.37" shape="787.16,-15.10 791.30,-9.01 792.75,-2.50 791.01,2.68 785.54,4.80"/>
    </edge>
    <edge id=":gneJ5_10" function="internal">
        <lane id=":gneJ5_10_0" index="0" speed="8.00" length="22.70" shape="787.16,-15.10 791.30,-9.51 792.75,-4.10 791.01,-0.02 785.54,1.60"/>
    </edge>
    <edge id=":gneJ5_11" function="internal">
        <lane id=":gneJ5_11_0" index="0" speed="80.00" length="12.36" shape="785.54,-11.20 797.91,-11.20"/>
        <lane id=":gneJ5_11_1" index="1" speed="80.00" length="12.36" shape="785.54,-8.00 797.91,-8.00"/>
        <lane id=":gneJ5_11_2" index="2" speed="80.00" length="12.36" shape="785.54,-4.80 797.91,-4.80"/>
        <lane id=":gneJ5_11_3" index="3" speed="80.00" length="12.36" shape="785.54,-1.60 797.91,-1.60"/>
    </edge>
    <edge id=":gneJ5_15" function="internal">
        <lane id=":gneJ5_15_0" index="0" speed="8.00" length="5.70" shape="785.54,-1.60 791.01,0.02"/>
    </edge>
    <edge id=":gneJ5_16" function="internal">
        <lane id=":gneJ5_16_0" index="0" speed="8.00" length="17.00" shape="791.01,0.02 792.75,4.10 791.30,9.51 787.16,15.10"/>
    </edge>
    <edge id=":gneJ7_0" function="internal">
        <lane id=":gneJ7_0_0" index="0" speed="6.51" length="9.03" shape="598.40,210.40 598.05,207.95 597.00,206.20 595.25,205.15 592.80,204.80"/>
    </edge>
    <edge id=":gneJ7_1" function="internal">
        <lane id=":gneJ7_1_0" index="0" speed="11.02" length="11.15" shape="606.22,200.57 604.20,202.91 602.76,205.34 601.89,207.83 601.60,210.40"/>
    </edge>
    <edge id=":gneJ7_2" function="internal">
        <lane id=":gneJ7_2_0" index="0" speed="12.48" length="14.42" shape="606.22,200.57 603.80,202.42 600.75,203.74 597.08,204.54 592.80,204.80"/>
    </edge>
    <edge id=":gneJ7_3" function="internal">
        <lane id=":gneJ7_3_0" index="0" speed="11.38" length="11.91" shape="603.96,198.30 602.03,199.75 599.52,200.78 596.45,201.39 592.80,201.60"/>
    </edge>
    <edge id=":gneJ8_0" function="internal">
        <lane id=":gneJ8_0_0" index="0" speed="11.02" length="11.15" shape="198.40,210.40 198.11,207.83 197.24,205.34 195.80,202.91 193.78,200.57"/>
    </edge>
    <edge id=":gneJ8_1" function="internal">
        <lane id=":gneJ8_1_0" index="0" speed="6.51" length="9.03" shape="207.20,204.80 204.75,205.15 203.00,206.20 201.95,207.95 201.60,210.40"/>
    </edge>
    <edge id=":gneJ8_2" function="internal">
        <lane id=":gneJ8_2_0" index="0" speed="12.48" length="14.42" shape="207.20,204.80 202.92,204.54 199.25,203.74 196.20,202.42 193.78,200.57"/>
    </edge>
    <edge id=":gneJ8_3" function="internal">
        <lane id=":gneJ8_3_0" index="0" speed="11.38" length="11.91" shape="207.20,201.60 203.55,201.39 200.48,200.78 197.97,199.75 196.04,198.30"/>
    </edge>
    <edge id=":gneJ9_0" function="internal">
        <lane id=":gneJ9_0_0" index="0" speed="60.00" length="14.40" shape="395.20,-196.00 395.20,-210.40"/>
        <lane id=":gneJ9_0_1" index="1" speed="60.00" length="14.40" shape="398.40,-196.00 398.40,-210.40"/>
    </edge>
    <edge id=":gneJ9_2" function="internal">
        <lane id=":gneJ9_2_0" index="0" speed="8.10" length="3.64" shape="398.40,-196.00 399.15,-198.45 400.00,-199.11"/>
    </edge>
    <edge id=":gneJ9_10" function="internal">
        <lane id=":gneJ9_10_0" index="0" speed="8.10" length="10.93" shape="400.00,-199.11 401.40,-200.20 405.15,-201.25 410.40,-201.60"/>
    </edge>
    <edge id=":gneJ9_3" function="internal">
        <lane id=":gneJ9_3_0" index="0" speed="6.51" length="9.03" shape="404.80,-210.40 405.15,-207.95 406.20,-206.20 407.95,-205.15 410.40,-204.80"/>
    </edge>
    <edge id=":gneJ9_4" function="internal">
        <lane id=":gneJ9_4_0" index="0" speed="60.00" length="14.40" shape="404.80,-210.40 404.80,-196.00"/>
        <lane id=":gneJ9_4_1" index="1" speed="60.00" length="14.40" shape="401.60,-210.40 401.60,-196.00"/>
    </edge>
    <edge id=":gneJ9_6" function="internal">
        <lane id=":gneJ9_6_0" index="0" speed="6.51" length="9.03" shape="389.60,-204.80 392.05,-205.15 393.80,-206.20 394.85,-207.95 395.20,-210.40"/>
    </edge>
    <edge id=":gneJ9_7" function="internal">
        <lane id=":gneJ9_7_0" index="0" speed="60.00" length="20.80" shape="389.60,-204.80 410.40,-204.80"/>
        <lane id=":gneJ9_7_1" index="1" speed="60.00" length="20.80" shape="389.60,-201.60 410.40,-201.60"/>
    </edge>
    <edge id=":gneJ9_9" function="internal">
        <lane id=":gneJ9_9_0" index="0" speed="8.10" length="14.57" shape="389.60,-201.60 394.85,-201.25 398.60,-200.20 400.85,-198.45 401.60,-196.00"/>
    </edge>

    <edge id="gneE0" from="gneJ0" to="gneJ1" priority="-1">
        <lane id="gneE0_0" index="0" speed="80.00" length="402.09" shape="-400.00,-11.20 2.09,-11.20"/>
        <lane id="gneE0_1" index="1" speed="80.00" length="402.09" shape="-400.00,-8.00 2.09,-8.00"/>
        <lane id="gneE0_2" index="2" speed="80.00" length="402.09" shape="-400.00,-4.80 2.09,-4.80"/>
        <lane id="gneE0_3" index="3" speed="80.00" length="402.09" shape="-400.00,-1.60 2.09,-1.60"/>
    </edge>
    <edge id="gneE1" from="gneJ1" to="gneJ2" priority="-1">
        <lane id="gneE1_0" index="0" speed="60.00" length="259.08" shape="10.58,-17.37 193.78,-200.57"/>
        <lane id="gneE1_1" index="1" speed="60.00" length="259.08" shape="12.84,-15.10 196.04,-198.30"/>
    </edge>
    <edge id="gneE10" from="gneJ8" to="gneJ1" priority="-1">
        <lane id="gneE10_0" index="0" speed="60.00" length="259.08" shape="193.78,200.57 10.58,17.37"/>
        <lane id="gneE10_1" index="1" speed="60.00" length="259.08" shape="196.04,198.30 12.84,15.10"/>
    </edge>
    <edge id="gneE11" from="gneJ2" to="gneJ9" priority="-1">
        <lane id="gneE11_0" index="0" speed="60.00" length="182.40" shape="207.20,-204.80 389.60,-204.80"/>
        <lane id="gneE11_1" index="1" speed="60.00" length="182.40" shape="207.20,-201.60 389.60,-201.60"/>
    </edge>
    <edge id="gneE15" from="gneJ9" to="gneJ4" priority="-1">
        <lane id="gneE15_0" index="0" speed="60.00" length="182.40" shape="410.40,-204.80 592.80,-204.80"/>
        <lane id="gneE15_1" index="1" speed="60.00" length="182.40" shape="410.40,-201.60 592.80,-201.60"/>
    </edge>
    <edge id="gneE16" from="gneJ7" to="gneJ11" priority="-1">
        <lane id="gneE16_0" index="0" speed="60.00" length="182.40" shape="592.80,204.80 410.40,204.80"/>
        <lane id="gneE16_1" index="1" speed="60.00" length="182.40" shape="592.80,201.60 410.40,201.60"/>
    </edge>
    <edge id="gneE17" from="gneJ11" to="gneJ8" priority="-1">
        <lane id="gneE17_0" index="0" speed="60.00" length="182.40" shape="389.60,204.80 207.20,204.80"/>
        <lane id="gneE17_1" index="1" speed="60.00" length="182.40" shape="389.60,201.60 207.20,201.60"/>
    </edge>
    <edge id="gneE18" from="gneJ11" to="gneJ9" priority="-1">
        <lane id="gneE18_0" index="0" speed="60.00" length="392.00" shape="395.20,196.00 395.20,-196.00"/>
        <lane id="gneE18_1" index="1" speed="60.00" length="392.00" shape="398.40,196.00 398.40,-196.00"/>
    </edge>
    <edge id="gneE19" from="gneJ9" to="gneJ11" priority="-1">
        <lane id="gneE19_0" index="0" speed="60.00" length="392.00" shape="404.80,-196.00 404.80,196.00"/>
        <lane id="gneE19_1" index="1" speed="60.00" length="392.00" shape="401.60,-196.00 401.60,196.00"/>
    </edge>
    <edge id="gneE20" from="gneJ9" to="gneJ12" priority="-1">
        <lane id="gneE20_0" index="0" speed="60.00" length="379.20" shape="395.20,-210.40 395.20,-589.60"/>
        <lane id="gneE20_1" index="1" speed="60.00" length="379.20" shape="398.40,-210.40 398.40,-589.60"/>
    </edge>
    <edge id="gneE21" from="gneJ12" to="gneJ9" priority="-1">
        <lane id="gneE21_0" index="0" speed="60.00" length="379.20" shape="404.80,-589.60 404.80,-210.40"/>
        <lane id="gneE21_1" index="1" speed="60.00" length="379.20" shape="401.60,-589.60 401.60,-210.40"/>
    </edge>