<?xml version="1.0" encoding="UTF-8"?>
<routes>
  <vType accel="0.8" decel="4.5" id="CarA" length="5.0" minGap="2.5" maxSpeed="16.7" sigma="0.5" /> <!--   !-->
  <vType accel="2.0" decel="6.0" id="CarB" length="7.5" minGap="2.5" maxSpeed="50.0" sigma="0.5" /> <!--   !-->
  <vType accel="1.5" decel="7.0" id="CarC" length="5.0" minGap="2.0" maxSpeed="60.0" sigma="0.6" /> <!--   !-->

  <route id="route0" edges="gneE0 gneE1 gneE2" /> <!-- Highway until the end !-->
  <route id="route1" edges="gneE0 gneE3 gneE14 gneE10 gneE2" /> <!-- Highway, first exit,  horizontal, then go back on the highway until the end !-->
  <route id="route2" edges="gneE0 gneE3 gneE4 gneE5 gneE6" /> <!-- Highway, first exit,  vertical until the end  !-->
  <route id="route3" edges="gneE0 gneE3 gneE14 gneE19 gneE20 gneE21" /> <!-- Highway, first exit,  horizontal,  vertical until the end  !-->
  <route id="route4" edges="gneE0 gneE3 gneE4 gneE22 gneE73" /> <!-- Highway, first exit,  vertical,  first westbound until the end  !-->
  <route id="route5" edges="gneE0 gneE3 gneE4 gneE22 gneE83 gneE85" /> <!-- Highway, first exit,  vertical,  first westbound, exit north until the end  !-->
  <route id="route6" edges="gneE0 gneE3 gneE4 gneE5 gneE24 gneE63" /> <!-- Highway, first exit,  vertical,  second westbound until the end  !-->
  <route id="route7" edges="gneE0 gneE3 gneE4 gneE5 gneE24 gneE65 gneE66" /> <!-- Highway, first exit,  vertical,  second westbound, north until the end  !-->
  <route id="route8" edges="gneE0 gneE3 gneE4 gneE5 gneE24 gneE69 gneE70" /> <!-- Highway, first exit,  vertical,  second westbound, south until the end  !-->
  <route id="route9" edges="gneE0 gneE3 gneE4 gneE32 gneE33 gneE34 gneE21" /> <!-- Highway, first exit,  vertical,  first eastbound,  vertical  south until the end  !-->
  <route id="route10" edges="gneE0 gneE3 gneE4 gneE32 gneE39" /> <!-- Highway, first exit,  vertical,  first eastbound,  first north until the end  !-->
  <route id="route11" edges="gneE0 gneE3 gneE4 gneE32 gneE41" /> <!-- Highway, first exit,  vertical,  first eastbound,  first east until the end  !-->
  <route id="route12" edges="gneE0 gneE3 gneE4 gneE32 gneE33 gneE43" /> <!-- Highway, first exit,  vertical,  first eastbound,  first west until the end  !-->
  <route id="route13" edges="gneE0 gneE3 gneE4 gneE32 gneE33 gneE45" /> <!-- Highway, first exit,  vertical,  first eastbound,  first south until the end  !-->
  <route id="route14" edges="gneE0 gneE3 gneE4 gneE32 gneE33 gneE34 gneE29 gneE57" /> <!-- Highway, first exit,  vertical,  first eastbound, go across to the eastbound  until the end  !-->
  <route id="route15" edges="gneE0 gneE3 gneE4 gneE32 gneE33 gneE34 gneE29 gneE53 gneE54" /> <!-- Highway, first exit,  vertical,  first eastbound, go across, go north until the end  !-->
  <route id="route16" edges="gneE0 gneE3 gneE4 gneE32 gneE33 gneE34 gneE29 gneE59 gneE60" /> <!-- Highway, first exit,  vertical,  first eastbound, go across, go south until the end  !-->
  <route id="route17" edges="gneE0 gneE3 gneE14 gneE19 gneE26 gneE47" /> <!-- Highway, first exit,  horizontal,  vertical,  first eastbound exit until the end  !-->
  <route id="route18" edges="gneE0 gneE3 gneE14 gneE19 gneE26 gneE49 gneE50" /> <!-- Highway, first exit,  horizontal,  vertical,  first eastbound exit, north until the end  !-->
  <route id="route19" edges="gneE0 gneE3 gneE14 gneE19 gneE20 gneE29 gneE57" /> <!-- Highway, first exit,  horizontal,  vertical,  second eastbound exit until the end  !-->
  <route id="route20" edges="gneE0 gneE3 gneE14 gneE19 gneE20 gneE29 gneE53 gneE54" /> <!-- Highway, first exit,  horizontal,  vertical,  second eastbound exit, north until the end  !-->
  <route id="route21" edges="gneE0 gneE3 gneE14 gneE19 gneE20 gneE29 gneE59 gneE60" /> <!-- Highway, first exit,  horizontal,  vertical,  second eastbound exit, south until the end  !-->
  
  <route id="route22" edges="gneE84 gneE23 gneE18 gneE14 gneE10 gneE2" /> <!-- Top-West South,  vertical north,  horizontal east, get on the highway until the end  !-->
  <route id="route23" edges="gneE84 gneE23 gneE18 gneE14 gneE19 gneE26 gneE47" /> <!-- Top-West South,  vertical north,  horizontal east,  vertical south,  first eastbound until the end  !-->
  <route id="route24" edges="gneE84 gneE23 gneE18 gneE14 gneE19 gneE26 gneE49 gneE50" /> <!-- Top-West South,  vertical north,  horizontal east,  vertical south,  first eastbound until the end  !-->
  <route id="route25" edges="gneE84 gneE23 gneE5 gneE6" /> <!-- Top-West South,  vertical south until the end  !-->
  <route id="route26" edges="gneE84 gneE23 gneE32 gneE33 gneE34 gneE21" /> <!-- Top-West South, go across,  vertical south until the end  !-->
  <route id="route27" edges="gneE84 gneE23 gneE32 gneE33 gneE34 gneE29 gneE57" /> <!-- Top-West South, go across, go accross until the end  !-->
  <route id="route28" edges="gneE84 gneE23 gneE32 gneE33 gneE34 gneE29 gneE53 gneE54" /> <!-- Top-West South, go across, go accross, north until the end  !-->
  <route id="route29" edges="gneE84 gneE23 gneE32 gneE33 gneE34 gneE29 gneE59 gneE60" /> <!-- Top-West South, go across, go accross, south until the end  !-->
  <route id="route30" edges="gneE84 gneE23 gneE32 gneE33 gneE34 gneE8 gneE26 gneE47" /> <!-- Top-West South, go across,  vertical north,  first east until the end  !-->
  <route id="route31" edges="gneE84 gneE23 gneE32 gneE33 gneE34 gneE8 gneE26 gneE49 gneE50" /> <!-- Top-West South, go across,  vertical north,  first east, north until the end  !-->

  <route id="route32" edges="gneE86 gneE87 gneE23 gneE18 gneE14 gneE10 gneE2" /> <!-- Top-West North,  vertical north,  horizontal east, get on the highway until the end  !-->
  <route id="route33" edges="gneE86 gneE87 gneE23 gneE18 gneE14 gneE19 gneE26 gneE47" /> <!-- Top-West North,  vertical north,  horizontal east,  vertical south,  first eastbound until the end  !-->
  <route id="route34" edges="gneE86 gneE87 gneE23 gneE18 gneE14 gneE19 gneE26 gneE49 gneE50" /> <!-- Top-West North,  vertical north,  horizontal east,  vertical south,  first eastbound until the end  !-->
  <route id="route35" edges="gneE86 gneE87 gneE23 gneE5 gneE6" /> <!-- Top-West North,  vertical south until the end  !-->
  <route id="route36" edges="gneE86 gneE87 gneE23 gneE32 gneE33 gneE34 gneE21" /> <!-- Top-West North, go across,  vertical south until the end  !-->
  <route id="route37" edges="gneE86 gneE87 gneE23 gneE32 gneE33 gneE34 gneE29 gneE57" /> <!-- Top-West North, go across, go accross until the end  !-->
  <route id="route38" edges="gneE86 gneE87 gneE23 gneE32 gneE33 gneE34 gneE29 gneE53 gneE54" /> <!-- Top-West North, go across, go accross, north until the end  !-->
  <route id="route39" edges="gneE86 gneE87 gneE23 gneE32 gneE33 gneE34 gneE29 gneE59 gneE60" /> <!-- Top-West North, go across, go accross, south until the end  !-->
  <route id="route40" edges="gneE86 gneE87 gneE23 gneE32 gneE33 gneE34 gneE8 gneE26 gneE47" /> <!-- Top-West North, go across,  vertical north,  first east until the end  !-->
  <route id="route41" edges="gneE86 gneE87 gneE23 gneE32 gneE33 gneE34 gneE8 gneE26 gneE49 gneE50" /> <!-- Top-West North, go across,  vertical north,  first east, north until the end  !-->

  <route id="route42" edges="gneE64 gneE25 gneE17 gneE18 gneE14 gneE10 gneE2" /> <!-- Bottom-West Middle,  vertical north,  horizontal east, get on the highway until the end  !-->
  <route id="route43" edges="gneE64 gneE25 gneE6" /> <!-- Bottom-West Middle,  vertical south until the end  !-->
  <route id="route44" edges="gneE64 gneE25 gneE17 gneE32 gneE33 gneE34 gneE21" /> <!-- Bottom-West Middle,  vertical north,  eastbound,  vertical south until the end  !-->
  <route id="route45" edges="gneE64 gneE25 gneE17 gneE32 gneE33 gneE34 gneE29 gneE57" /> <!-- Bottom-West Middle,  vertical north,  eastbound, go across until the end  !-->
  <route id="route46" edges="gneE64 gneE25 gneE17 gneE32 gneE33 gneE34 gneE29 gneE53 gneE54" /> <!-- Bottom-West Middle,  vertical north,  eastbound, go across, north until the end  !-->
  <route id="route47" edges="gneE64 gneE25 gneE17 gneE32 gneE33 gneE34 gneE29 gneE59 gneE60" /> <!-- Bottom-West Middle,  vertical north,  eastbound, go across, south until the end  !-->
  <route id="route48" edges="gneE64 gneE25 gneE17 gneE32 gneE33 gneE34 gneE8 gneE26 gneE47" /> <!-- Bottom-West Middle,  vertical north,  eastbound,  vertical north,  east until the end  !-->
  <route id="route49" edges="gneE64 gneE25 gneE17 gneE32 gneE33 gneE34 gneE8 gneE26 gneE49 gneE50" /> <!-- Bottom-West Middle,  vertical north,  eastbound,  vertical north,  east, north until the end  !-->
  <route id="route50" edges="gneE64 gneE25 gneE17 gneE32 gneE33 gneE34 gneE8 gneE9 gneE10 gneE2" /> <!-- Bottom-West Middle,  vertical north,  eastbound,  vertical north,  go on the highway until the end  !-->

  <route id="route51" edges="gneE67 gneE68 gneE25 gneE17 gneE18 gneE14 gneE10 gneE2" /> <!-- Bottom-West North,  vertical north,  horizontal east, get on the highway until the end  !-->
  <route id="route52" edges="gneE67 gneE68 gneE25 gneE6" /> <!-- Bottom-West North,  vertical south until the end  !-->
  <route id="route53" edges="gneE67 gneE68 gneE25 gneE17 gneE32 gneE33 gneE34 gneE21" /> <!-- Bottom-West North,  vertical north,  eastbound,  vertical south until the end  !-->
  <route id="route54" edges="gneE67 gneE68 gneE25 gneE17 gneE32 gneE33 gneE34 gneE29 gneE57" /> <!-- Bottom-West North,  vertical north,  eastbound, go across until the end  !-->
  <route id="route55" edges="gneE67 gneE68 gneE25 gneE17 gneE32 gneE33 gneE34 gneE29 gneE53 gneE54" /> <!-- Bottom-West North,  vertical north,  eastbound, go across, north until the end  !-->
  <route id="route56" edges="gneE67 gneE68 gneE25 gneE17 gneE32 gneE33 gneE34 gneE29 gneE59 gneE60" /> <!-- Bottom-West North,  vertical north,  eastbound, go across, south until the end  !-->
  <route id="route57" edges="gneE67 gneE68 gneE25 gneE17 gneE32 gneE33 gneE34 gneE8 gneE26 gneE47" /> <!-- Bottom-West North,  vertical north,  eastbound,  vertical north,  east until the end  !-->
  <route id="route58" edges="gneE67 gneE68 gneE25 gneE17 gneE32 gneE33 gneE34 gneE8 gneE26 gneE49 gneE50" /> <!-- Bottom-West North,  vertical north,  eastbound,  vertical north,  east, north until the end  !-->
  <route id="route59" edges="gneE67 gneE68 gneE25 gneE17 gneE32 gneE33 gneE34 gneE8 gneE9 gneE10 gneE2" /> <!-- Bottom-West North,  vertical north,  eastbound,  vertical north,  go on the highway until the end  !-->

  <route id="route60" edges="gneE71 gneE72 gneE25 gneE17 gneE18 gneE14 gneE10 gneE2" /> <!-- Bottom-West South,  vertical north,  horizontal east, get on the highway until the end  !-->
  <route id="route61" edges="gneE71 gneE72 gneE25 gneE6" /> <!-- Bottom-West South,  vertical south until the end  !-->
  <route id="route62" edges="gneE71 gneE72 gneE25 gneE17 gneE32 gneE33 gneE34 gneE21" /> <!-- Bottom-West South,  vertical north,  eastbound,  vertical south until the end  !-->
  <route id="route63" edges="gneE71 gneE72 gneE25 gneE17 gneE32 gneE33 gneE34 gneE29 gneE57" /> <!-- Bottom-West South,  vertical north,  eastbound, go across until the end  !-->
  <route id="route64" edges="gneE71 gneE72 gneE25 gneE17 gneE32 gneE33 gneE34 gneE29 gneE53 gneE54" /> <!-- Bottom-West South,  vertical north,  eastbound, go across, north until the end  !-->
  <route id="route65" edges="gneE71 gneE72 gneE25 gneE17 gneE32 gneE33 gneE34 gneE29 gneE59 gneE60" /> <!-- Bottom-West South,  vertical north,  eastbound, go across, south until the end  !-->
  <route id="route66" edges="gneE71 gneE72 gneE25 gneE17 gneE32 gneE33 gneE34 gneE8 gneE26 gneE47" /> <!-- Bottom-West South,  vertical north,  eastbound,  vertical north,  east until the end  !-->
  <route id="route67" edges="gneE71 gneE72 gneE25 gneE17 gneE32 gneE33 gneE34 gneE8 gneE26 gneE49 gneE50" /> <!-- Bottom-West South,  vertical north,  eastbound,  vertical north,  east, north until the end  !-->
  <route id="route68" edges="gneE71 gneE72 gneE25 gneE17 gneE32 gneE33 gneE34 gneE8 gneE9 gneE10 gneE2" /> <!-- Bottom-West South,  vertical north,  eastbound,  vertical north,  go on the highway until the end  !-->

  <route id="route69" edges="gneE16 gneE17 gneE18 gneE14 gneE10 gneE2" /> <!-- West,  vertical north,  top horizontal, get on the highway until the end  !-->
  <route id="route70" edges="gneE16 gneE24 gneE63" /> <!-- West,  vertical north,  first westbound until the end  !-->
  <route id="route71" edges="gneE16 gneE24 gneE65 gneE66" /> <!-- West,  vertical north,  first westbound, north until the end  !-->
  <route id="route72" edges="gneE16 gneE24 gneE69 gneE70" /> <!-- West,  vertical north,  first westbound, north until the end  !-->
  <route id="route73" edges="gneE16 gneE17 gneE22 gneE73" /> <!-- West,  vertical north,  second westbound until the end  !-->
  <route id="route74" edges="gneE16 gneE17 gneE22 gneE83 gneE85" /> <!-- West,  vertical north,  second westbound, north until the end  !-->
  <route id="route75" edges="gneE16 gneE17 gneE32 gneE33 gneE34 gneE21" /> <!-- West,  vertical north,  first eastbound,  vertical south until the end  !-->
  <route id="route76" edges="gneE16 gneE17 gneE32 gneE33 gneE34 gneE29 gneE57" /> <!-- West,  vertical north,  first eastbound, go across until the end  !-->
  <route id="route77" edges="gneE16 gneE17 gneE32 gneE33 gneE34 gneE29 gneE53 gneE54" /> <!-- West,  vertical north,  first eastbound, go across, north until the end  !-->
  <route id="route78" edges="gneE16 gneE17 gneE32 gneE33 gneE34 gneE29 gneE59 gneE60" /> <!-- West,  vertical north,  first eastbound, go across, south until the end  !-->
  <route id="route79" edges="gneE16 gneE17 gneE32 gneE33 gneE34 gneE8 gneE26 gneE47" /> <!-- West,  vertical north,  first eastbound,  vertical north,  east until the end  !-->
  <route id="route80" edges="gneE16 gneE17 gneE32 gneE33 gneE34 gneE8 gneE26 gneE49 gneE50" /> <!-- West,  vertical north,  first eastbound,  vertical north,  east, north until the end  !-->
  <route id="route81" edges="gneE16 gneE17 gneE32 gneE33 gneE34 gneE8 gneE9 gneE10 gneE2" /> <!-- West, vertical north, first eastbound, vertical north, get on the highway until the end  !-->
  <route id="route82" edges="gneE16 gneE17 gneE32 gneE39" /> <!-- West,  vertical north,  first eastbound,  first northbound until the end  !-->
  <route id="route83" edges="gneE16 gneE17 gneE32 gneE41" /> <!-- West,  vertical north,  first eastbound until the end  !-->
  <route id="route84" edges="gneE16 gneE17 gneE32 gneE33 gneE43" /> <!-- West,  vertical north,  first eastbound, first westbound until the end  !-->
  <route id="route85" edges="gneE16 gneE17 gneE32 gneE33 gneE45" /> <!-- West,  vertical north,  first eastbound, first southbound until the end  !-->

  <route id="route86" edges="gneE48 gneE27 gneE9 gneE10 gneE2" /> <!-- Top-East South, vertical north, get on the highway until the end  !-->
  <route id="route87" edges="gneE48 gneE27 gneE20 gneE21" /> <!-- Top-East South, vertical south until the end  !-->
  <route id="route88" edges="gneE48 gneE27 gneE20 gneE29 gneE57" /> <!-- Top-East South, vertical south, eastbound until the end  !-->
  <route id="route89" edges="gneE48 gneE27 gneE20 gneE36 gneE37 gneE38 gneE5 gneE6" /> <!-- Top-East South, vertical south, westbound, vertical south until the end  !-->
  <route id="route90" edges="gneE48 gneE27 gneE20 gneE36 gneE37 gneE38 gneE22 gneE73" /> <!-- Top-East South, vertical south, westbound, go across until the end  !-->
  <route id="route91" edges="gneE48 gneE27 gneE20 gneE36 gneE37 gneE38 gneE22 gneE83 gneE85" /> <!-- Top-East South, vertical south, westbound, go across, north until the end  !-->
  <route id="route92" edges="gneE48 gneE27 gneE20 gneE36 gneE37 gneE38 gneE5 gneE24 gneE63" /> <!-- Top-East South, vertical south, westbound, vertical south, westbound until the end  !-->
  <route id="route93" edges="gneE48 gneE27 gneE20 gneE36 gneE37 gneE38 gneE5 gneE24 gneE65 gneE66" /> <!-- Top-East South, vertical south, westbound, vertical south, west, north until the end  !-->
  <route id="route94" edges="gneE48 gneE27 gneE20 gneE36 gneE37 gneE38 gneE5 gneE24 gneE69 gneE70" /> <!-- Top-East South, vertical south, westbound, vertical south, west, south until the end  !-->
  <route id="route95" edges="gneE48 gneE27 gneE20 gneE36 gneE43" /> <!-- Top-East South, vertical south, westbound, vertical south, west until the end  !-->
  <route id="route96" edges="gneE48 gneE27 gneE20 gneE36 gneE45" /> <!-- Top-East South, vertical south, westbound, vertical south, west, south until the end  !-->
  <route id="route97" edges="gneE48 gneE27 gneE20 gneE36 gneE37 gneE39" /> <!-- Top-East South, vertical south, westbound, vertical south, west, north until the end  !-->
  <route id="route98" edges="gneE48 gneE27 gneE20 gneE36 gneE37 gneE41" /> <!-- Top-East South, vertical south, westbound, vertical south, west, east until the end  !-->

  <route id="route99" edges="gneE51 gneE52 gneE27 gneE9 gneE10 gneE2" /> <!-- Top-East North, vertical north, get on the highway until the end  !-->
  <route id="route100" edges="gneE51 gneE52 gneE27 gneE20 gneE21" /> <!-- Top-East North, vertical south until the end  !-->
  <route id="route101" edges="gneE51 gneE52 gneE27 gneE20 gneE29 gneE57" /> <!-- Top-East North, vertical south, eastbound until the end  !-->
  <route id="route102" edges="gneE51 gneE52 gneE27 gneE20 gneE36 gneE37 gneE38 gneE5 gneE6" /> <!-- Top-East North, vertical south, westbound, vertical south until the end  !-->
  <route id="route103" edges="gneE51 gneE52 gneE27 gneE20 gneE36 gneE37 gneE38 gneE22 gneE73" /> <!-- Top-East North, vertical south, westbound, go across until the end  !-->
  <route id="route104" edges="gneE51 gneE52 gneE27 gneE20 gneE36 gneE37 gneE38 gneE22 gneE83 gneE85" /> <!-- Top-East North, vertical south, westbound, go across, north until the end  !-->
  <route id="route105" edges="gneE51 gneE52 gneE27 gneE20 gneE36 gneE37 gneE38 gneE5 gneE24 gneE63" /> <!-- Top-East North, vertical south, westbound, vertical south, westbound until the end  !-->
  <route id="route106" edges="gneE51 gneE52 gneE27 gneE20 gneE36 gneE37 gneE38 gneE5 gneE24 gneE65 gneE66" /> <!-- Top-East North, vertical south, westbound, vertical south, west, north until the end  !-->
  <route id="route107" edges="gneE51 gneE52 gneE27 gneE20 gneE36 gneE37 gneE38 gneE5 gneE24 gneE69 gneE70" /> <!-- Top-East North, vertical south, westbound, vertical south, west, south until the end  !-->
  <route id="route108" edges="gneE51 gneE52 gneE27 gneE20 gneE36 gneE43" /> <!-- Top-East North, vertical south, westbound, vertical south, west until the end  !-->
  <route id="route109" edges="gneE51 gneE52 gneE27 gneE20 gneE36 gneE45" /> <!-- Top-East North, vertical south, westbound, vertical south, west, south until the end  !-->
  <route id="route110" edges="gneE51 gneE52 gneE27 gneE20 gneE36 gneE37 gneE39" /> <!-- Top-East North, vertical south, westbound, vertical south, west, north until the end  !-->
  <route id="route111" edges="gneE51 gneE52 gneE27 gneE20 gneE36 gneE37 gneE41" /> <!-- Top-East North, vertical south, westbound, vertical south, west, east until the end  !-->

  <route id="route112" edges="gneE58 gneE31 gneE8 gneE9 gneE10 gneE2" /> <!-- Bottom-East middle, vertical north, get on the highway until the end  !-->
  <route id="route113" edges="gneE58 gneE31 gneE21" /> <!-- Bottom-East middle, vertical south until the end  !-->
  <route id="route114" edges="gneE58 gneE31 gneE8 gneE26 gneE47" /> <!-- Bottom-East middle, vertical north, eastbound until the end  !-->
  <route id="route115" edges="gneE58 gneE31 gneE36 gneE37 gneE38 gneE5 gneE6" /> <!-- Bottom-East middle, go across, vertical south until the end  !-->
  <route id="route116" edges="gneE58 gneE31 gneE36 gneE37 gneE38 gneE22 gneE73" /> <!-- Bottom-East middle, go across, go across until the end  !-->
  <route id="route117" edges="gneE58 gneE31 gneE36 gneE37 gneE38 gneE22 gneE83 gneE85" /> <!-- Bottom-East middle, go across, go across, north until the end  !-->
  <route id="route118" edges="gneE58 gneE31 gneE36 gneE37 gneE38 gneE5 gneE24 gneE63" /> <!-- Bottom-East middle, go across, vertical south, westbound until the end  !-->
  <route id="route119" edges="gneE58 gneE31 gneE36 gneE37 gneE38 gneE5 gneE24 gneE65 gneE66" /> <!-- Bottom-East middle, go across, vertical south, westbound, north until the end  !-->
  <route id="route120" edges="gneE58 gneE31 gneE36 gneE37 gneE38 gneE5 gneE24 gneE69 gneE70" /> <!-- Bottom-East middle, go across, vertical south, westbound, south until the end  !-->
  <route id="route121" edges="gneE58 gneE31 gneE36 gneE45" /> <!-- Bottom-East middle, go across, vertical south, westbound, first south until the end  !-->
  <route id="route122" edges="gneE58 gneE31 gneE36 gneE43" /> <!-- Bottom-East middle, go across, vertical south, westbound until the end  !-->
  <route id="route123" edges="gneE58 gneE31 gneE36 gneE37 gneE39" /> <!-- Bottom-East middle, go across, vertical south, west, north until the end  !-->
  <route id="route124" edges="gneE58 gneE31 gneE36 gneE37 gneE41" /> <!-- Bottom-East middle, go across, vertical south, west, east until the end  !-->

  <route id="route125" edges="gneE55 gneE56 gneE31 gneE8 gneE9 gneE10 gneE2" /> <!-- Bottom-East north, vertical north, get on the highway until the end  !-->
  <route id="route126" edges="gneE55 gneE56 gneE31 gneE21" /> <!-- Bottom-East north, vertical south until the end  !-->
  <route id="route127" edges="gneE55 gneE56 gneE31 gneE8 gneE26 gneE47" /> <!-- Bottom-East north, vertical north, eastbound until the end  !-->
  <route id="route128" edges="gneE55 gneE56 gneE31 gneE36 gneE37 gneE38 gneE5 gneE6" /> <!-- Bottom-East north, go across, vertical south until the end  !-->
  <route id="route129" edges="gneE55 gneE56 gneE31 gneE36 gneE37 gneE38 gneE22 gneE73" /> <!-- Bottom-East north, go across, go across until the end  !-->
  <route id="route130" edges="gneE55 gneE56 gneE31 gneE36 gneE37 gneE38 gneE22 gneE83 gneE85" /> <!-- Bottom-East north, go across, go across, north until the end  !-->
  <route id="route131" edges="gneE55 gneE56 gneE31 gneE36 gneE37 gneE38 gneE5 gneE24 gneE63" /> <!-- Bottom-East north, go across, vertical south, westbound until the end  !-->
  <route id="route132" edges="gneE55 gneE56 gneE31 gneE36 gneE37 gneE38 gneE5 gneE24 gneE65 gneE66" /> <!-- Bottom-East north, go across, vertical south, westbound, north until the end  !-->
  <route id="route133" edges="gneE55 gneE56 gneE31 gneE36 gneE37 gneE38 gneE5 gneE24 gneE69 gneE70" /> <!-- Bottom-East north, go across, vertical south, westbound, south until the end  !-->
  <route id="route134" edges="gneE55 gneE56 gneE31 gneE36 gneE45" /> <!-- Bottom-East north, go across, vertical south, westbound, first south until the end  !-->
  <route id="route135" edges="gneE55 gneE56 gneE31 gneE36 gneE43" /> <!-- Bottom-East north, go across, vertical south, westbound until the end  !-->
  <route id="route136" edges="gneE55 gneE56 gneE31 gneE36 gneE37 gneE39" /> <!-- Bottom-East north, go across, vertical south, west, north until the end  !-->
  <route id="route137" edges="gneE55 gneE56 gneE31 gneE36 gneE37 gneE41" /> <!-- Bottom-East north, go across, vertical south, west, east until the end  !-->

  <route id="route138" edges="gneE61 gneE62 gneE31 gneE8 gneE9 gneE10 gneE2" /> <!-- Bottom-East south, vertical north, get on the highway until the end  !-->
  <route id="route139" edges="gneE61 gneE62 gneE31 gneE21" /> <!-- Bottom-East south, vertical south until the end  !-->
  <route id="route140" edges="gneE61 gneE62 gneE31 gneE8 gneE26 gneE47" /> <!-- Bottom-East south, vertical north, eastbound until the end  !-->
  <route id="route141" edges="gneE61 gneE62 gneE31 gneE36 gneE37 gneE38 gneE5 gneE6" /> <!-- Bottom-East south, go across, vertical south until the end  !-->
  <route id="route142" edges="gneE61 gneE62 gneE31 gneE36 gneE37 gneE38 gneE22 gneE73" /> <!-- Bottom-East south, go across, go across until the end  !-->
  <route id="route143" edges="gneE61 gneE62 gneE31 gneE36 gneE37 gneE38 gneE22 gneE83 gneE85" /> <!-- Bottom-East south, go across, go across, north until the end  !-->
  <route id="route144" edges="gneE61 gneE62 gneE31 gneE36 gneE37 gneE38 gneE5 gneE24 gneE63" /> <!-- Bottom-East south, go across, vertical south, westbound until the end  !-->
  <route id="route145" edges="gneE61 gneE62 gneE31 gneE36 gneE37 gneE38 gneE5 gneE24 gneE65 gneE66" /> <!-- Bottom-East south, go across, vertical south, westbound, north until the end  !-->
  <route id="route146" edges="gneE61 gneE62 gneE31 gneE36 gneE37 gneE38 gneE5 gneE24 gneE69 gneE70" /> <!-- Bottom-East south, go across, vertical south, westbound, south until the end  !-->
  <route id="route147" edges="gneE61 gneE62 gneE31 gneE36 gneE45" /> <!-- Bottom-East south, go across, vertical south, westbound, first south until the end  !-->
  <route id="route148" edges="gneE61 gneE62 gneE31 gneE36 gneE43" /> <!-- Bottom-East south, go across, vertical south, westbound until the end  !-->
  <route id="route149" edges="gneE61 gneE62 gneE31 gneE36 gneE37 gneE39" /> <!-- Bottom-East south, go across, vertical south, west, north until the end  !-->
  <route id="route150" edges="gneE61 gneE62 gneE31 gneE36 gneE37 gneE41" /> <!-- Bottom-East south, go across, vertical south, west, east until the end  !-->


  <route id="route151" edges="gneE7 gneE8 gneE9 gneE10 gneE2" /> <!-- East, vertical north, get on the highway until the end  !-->
  <route id="route152" edges="gneE7 gneE29 gneE57" /> <!-- East, vertical north, take first eastbound until the end  !-->
  <route id="route153" edges="gneE7 gneE29 gneE53 gneE54" /> <!-- East, vertical north, take first eastbound, north until the end  !-->
  <route id="route154" edges="gneE7 gneE29 gneE59 gneE60" /> <!-- East, vertical north, take first eastbound, south until the end  !-->
  <route id="route155" edges="gneE7 gneE8 gneE26 gneE47" /> <!-- East, vertical north, take second eastbound until the end  !-->
  <route id="route156" edges="gneE7 gneE8 gneE26 gneE49 gneE50" /> <!-- East, vertical north, take second eastbound, north until the end  !-->
  <route id="route157" edges="gneE7 gneE36 gneE37 gneE38 gneE5 gneE6" /> <!-- East, vertical north, take westbound, take vertical south until the end  !-->
  <route id="route158" edges="gneE7 gneE36 gneE37 gneE38 gneE22 gneE73" /> <!-- East, vertical north, take westbound, go across until the end  !-->
  <route id="route159" edges="gneE7 gneE36 gneE37 gneE38 gneE22 gneE83 gneE85" /> <!-- East, vertical north, take westbound, go across, north until the end  !-->
  <route id="route160" edges="gneE7 gneE36 gneE37 gneE38 gneE5 gneE24 gneE63" /> <!-- East, vertical north, take westbound, vertical south, westbound until the end  !-->
  <route id="route161" edges="gneE7 gneE36 gneE37 gneE38 gneE5 gneE24 gneE65 gneE66" /> <!-- East, vertical north, take westbound, vertical south, westbound, north until the end  !-->
  <route id="route162" edges="gneE7 gneE36 gneE37 gneE38 gneE5 gneE24 gneE69 gneE70" /> <!-- East, vertical north, take westbound, vertical south, westbound, north until the end  !-->
  <route id="route163" edges="gneE7 gneE36 gneE43" /> <!-- East, vertical north, take westbound, until the end  !-->
  <route id="route164" edges="gneE7 gneE36 gneE45" /> <!-- East, vertical north, take westbound, first south until the end  !-->
  <route id="route165" edges="gneE7 gneE36 gneE37 gneE39" /> <!-- East, vertical north, take westbound, north until the end  !-->
  <route id="route166" edges="gneE7 gneE36 gneE37 gneE41" /> <!-- East, vertical north, take westbound, first east until the end  !-->

  <route id="route167" edges="gneE40 gneE38 gneE18 gneE14 gneE10 gneE2" /> <!-- Middle-top north, westbound, northbound, eastbound, get on highway until the end  !-->
  <route id="route168" edges="gneE40 gneE33 gneE34 gneE8 gneE9 gneE10 gneE2" /> <!-- Middle-top north, southbound, northbound, get on highway until the end  !-->
  <route id="route169" edges="gneE40 gneE38 gneE5 gneE6" /> <!-- Middle-top north, westbound, south until the end  !-->
  <route id="route170" edges="gneE40 gneE33 gneE34 gneE21" /> <!-- Middle-top north, southbound, south main vertical until the end  !-->
  <route id="route171" edges="gneE40 gneE38 gneE22 gneE73" /> <!-- Middle-top north, westbound, go across until the end  !-->
  <route id="route172" edges="gneE40 gneE38 gneE5 gneE24 gneE63" /> <!-- Middle-top north, westbound, south, go west until the end  !-->
  <route id="route173" edges="gneE40 gneE33 gneE34 gneE29 gneE57" /> <!-- Middle-top north, southbound, go across until the end  !-->
  <route id="route174" edges="gneE40 gneE33 gneE34 gneE8 gneE26 gneE47" /> <!-- Middle-top north, southbound, north, east until the end  !-->

  <route id="route175" edges="gneE42 gneE38 gneE18 gneE14 gneE10 gneE2" /> <!-- Middle-top east, westbound, northbound, eastbound, get on highway until the end  !-->
  <route id="route176" edges="gneE42 gneE33 gneE34 gneE8 gneE9 gneE10 gneE2" /> <!-- Middle-top east, southbound, northbound, get on highway until the end  !-->
  <route id="route177" edges="gneE42 gneE38 gneE5 gneE6" /> <!-- Middle-top east, westbound, south until the end  !-->
  <route id="route178" edges="gneE42 gneE33 gneE34 gneE21" /> <!-- Middle-top east, southbound, south main vertical until the end  !-->
  <route id="route179" edges="gneE42 gneE38 gneE22 gneE73" /> <!-- Middle-top east, westbound, go across until the end  !-->
  <route id="route180" edges="gneE42 gneE38 gneE5 gneE24 gneE63" /> <!-- Middle-top east, westbound, south, go west until the end  !-->
  <route id="route181" edges="gneE42 gneE33 gneE34 gneE29 gneE57" /> <!-- Middle-top east, southbound, go across until the end  !-->
  <route id="route182" edges="gneE42 gneE33 gneE34 gneE8 gneE26 gneE47" /> <!-- Middle-top east, southbound, north, east until the end  !-->
