<?xml version="1.0" encoding="UTF-8"?>

<!-- generated on 10/20/18 14:27:43 by Eclipse SUMO netedit Version 1.0.1
<configuration xmlns:xsi="http://www.w3.org/2001/XMLSchema-instance" xsi:noNamespaceSchemaLocation="http://sumo.dlr.de/xsd/netconvertConfiguration.xsd">

    <input>
        <sumo-net-file value="D:\Louis\Documenten\dev\APS_TrafficProject\complex_network_1.net.xml"/>
    </input>

    <output>
        <output-file value="D:\Louis\Documenten\dev\APS_TrafficProject\complex_network_2.net.xml"/>
    </output>

    <processing>
        <offset.disable-normalization value="true"/>
        <lefthand value="false"/>
    </processing>

    <junctions>
        <no-turnarounds value="true"/>
        <junctions.corner-detail value="5"/>
        <junctions.limit-turn-speed value="5.5"/>
        <rectangular-lane-cut value="false"/>
    </junctions>

    <pedestrian>
        <walkingareas value="false"/>
    </pedestrian>

</configuration>
-->

<net version="1.0" junctionCornerDetail="5" limitTurnSpeed="5.50" xmlns:xsi="http://www.w3.org/2001/XMLSchema-instance" xsi:noNamespaceSchemaLocation="http://sumo.dlr.de/xsd/net_file.xsd">

    <location netOffset="0.00,0.00" convBoundary="-200.00,-700.00,1400.00,100.00" origBoundary="-10000000000.00,-10000000000.00,10000000000.00,10000000000.00" projParameter="!"/>

    <edge id=":gneJ1_0" function="internal">
        <lane id=":gneJ1_0_0" index="0" speed="10.77" length="10.63" shape="202.09,88.80 203.49,88.41 205.37,87.26 207.73,85.33 210.58,82.63"/>
    </edge>
    <edge id=":gneJ1_1" function="internal">
        <lane id=":gneJ1_1_0" index="0" speed="11.30" length="11.73" shape="202.09,88.80 205.33,88.56 208.20,87.82 210.70,86.60 212.84,84.90"/>
    </edge>
    <edge id=":gneJ1_2" function="internal">
        <lane id=":gneJ1_2_0" index="0" speed="60.00" length="12.36" shape="202.09,88.80 214.46,88.80"/>
        <lane id=":gneJ1_2_1" index="1" speed="60.00" length="12.36" shape="202.09,92.00 214.46,92.00"/>
        <lane id=":gneJ1_2_2" index="2" speed="60.00" length="12.36" shape="202.09,95.20 214.46,95.20"/>
        <lane id=":gneJ1_2_3" index="3" speed="60.00" length="12.36" shape="202.09,98.40 214.46,98.40"/>
    </edge>
    <edge id=":gneJ10_0" function="internal">
        <lane id=":gneJ10_0_0" index="0" speed="50.00" length="14.40" shape="795.20,-292.80 795.20,-307.20"/>
        <lane id=":gneJ10_0_1" index="1" speed="50.00" length="14.40" shape="798.40,-292.80 798.40,-307.20"/>
    </edge>
    <edge id=":gneJ10_2" function="internal">
        <lane id=":gneJ10_2_0" index="0" speed="8.67" length="5.26" shape="798.40,-292.80 799.15,-296.65 800.00,-297.69"/>
    </edge>
    <edge id=":gneJ10_8" function="internal">
        <lane id=":gneJ10_8_0" index="0" speed="8.67" length="11.59" shape="800.00,-297.69 801.40,-299.40 805.15,-301.05 810.40,-301.60"/>
    </edge>
    <edge id=":gneJ10_3" function="internal">
        <lane id=":gneJ10_3_0" index="0" speed="6.51" length="9.03" shape="810.40,-298.40 807.95,-298.05 806.20,-297.00 805.15,-295.25 804.80,-292.80"/>
    </edge>
    <edge id=":gneJ10_4" function="internal">
        <lane id=":gneJ10_4_0" index="0" speed="8.67" length="16.85" shape="810.40,-298.40 805.15,-298.95 801.40,-300.60 799.15,-303.35 798.40,-307.20"/>
    </edge>
    <edge id=":gneJ10_5" function="internal">
        <lane id=":gneJ10_5_0" index="0" speed="6.51" length="9.03" shape="804.80,-307.20 805.15,-304.75 806.20,-303.00 807.95,-301.95 810.40,-301.60"/>
    </edge>
    <edge id=":gneJ10_6" function="internal">
        <lane id=":gneJ10_6_0" index="0" speed="50.00" length="14.40" shape="804.80,-307.20 804.80,-292.80"/>
        <lane id=":gneJ10_6_1" index="1" speed="50.00" length="14.40" shape="801.60,-307.20 801.60,-292.80"/>
    </edge>
    <edge id=":gneJ11_0" function="internal">
        <lane id=":gneJ11_0_0" index="0" speed="11.62" length="12.44" shape="804.80,-110.40 805.01,-106.51 805.62,-103.27 806.65,-100.66 808.10,-98.69"/>
    </edge>
    <edge id=":gneJ11_1" function="internal">
        <lane id=":gneJ11_1_0" index="0" speed="12.84" length="15.27" shape="801.60,-110.40 801.54,-105.86 801.78,-102.61 803.00,-99.76 805.83,-96.43"/>
    </edge>
    <edge id=":gneJ11_2" function="internal">
        <lane id=":gneJ11_2_0" index="0" speed="6.51" length="9.03" shape="789.60,-104.80 792.05,-105.15 793.80,-106.20 794.85,-107.95 795.20,-110.40"/>
    </edge>
    <edge id=":gneJ11_3" function="internal">
        <lane id=":gneJ11_3_0" index="0" speed="7.33" length="11.73" shape="789.60,-104.80 793.45,-105.15 796.20,-106.20 797.85,-107.95 798.40,-110.40"/>
    </edge>
    <edge id=":gneJ11_4" function="internal">
        <lane id=":gneJ11_4_0" index="0" speed="13.70" length="17.45" shape="789.60,-101.60 794.76,-101.28 799.19,-100.31 802.88,-98.69 805.83,-96.43"/>
    </edge>
    <edge id=":gneJ19_0" function="internal">
        <lane id=":gneJ19_0_0" index="0" speed="6.51" length="9.03" shape="298.40,-292.80 298.05,-295.25 297.00,-297.00 295.25,-298.05 292.80,-298.40"/>
    </edge>
    <edge id=":gneJ19_1" function="internal">
        <lane id=":gneJ19_1_0" index="0" speed="8.00" length="14.19" shape="298.40,-292.80 298.95,-296.65 300.60,-299.40 303.35,-301.05 307.20,-301.60"/>
    </edge>
    <edge id=":gneJ19_2" function="internal">
        <lane id=":gneJ19_2_0" index="0" speed="6.51" length="9.03" shape="307.20,-298.40 304.75,-298.05 303.00,-297.00 301.95,-295.25 301.60,-292.80"/>
    </edge>
    <edge id=":gneJ19_3" function="internal">
        <lane id=":gneJ19_3_0" index="0" speed="30.00" length="14.40" shape="307.20,-298.40 292.80,-298.40"/>
    </edge>
    <edge id=":gneJ19_4" function="internal">
        <lane id=":gneJ19_4_0" index="0" speed="30.00" length="14.40" shape="292.80,-301.60 307.20,-301.60"/>
    </edge>
    <edge id=":gneJ19_5" function="internal">
        <lane id=":gneJ19_5_0" index="0" speed="8.00" length="5.93" shape="292.80,-301.60 296.65,-301.05 298.40,-300.00"/>
    </edge>
    <edge id=":gneJ19_6" function="internal">
        <lane id=":gneJ19_6_0" index="0" speed="8.00" length="8.26" shape="298.40,-300.00 299.40,-299.40 301.05,-296.65 301.60,-292.80"/>
    </edge>
    <edge id=":gneJ2_0" function="internal">
        <lane id=":gneJ2_0_0" index="0" speed="10.77" length="10.63" shape="989.42,82.63 992.27,85.33 994.63,87.26 996.51,88.41 997.91,88.80"/>
    </edge>
    <edge id=":gneJ2_1" function="internal">
        <lane id=":gneJ2_1_0" index="0" speed="11.92" length="13.11" shape="987.16,84.90 990.50,88.00 993.40,90.22 995.87,91.56 997.91,92.00"/>
    </edge>
    <edge id=":gneJ2_2" function="internal">
        <lane id=":gneJ2_2_0" index="0" speed="12.69" length="14.91" shape="987.16,84.90 989.00,86.81 992.42,90.31 995.91,93.69 997.91,95.20"/>
    </edge>
    <edge id=":gneJ2_3" function="internal">
        <lane id=":gneJ2_3_0" index="0" speed="60.00" length="12.36" shape="985.54,88.80 997.91,88.80"/>
        <lane id=":gneJ2_3_1" index="1" speed="60.00" length="12.36" shape="985.54,92.00 997.91,92.00"/>
        <lane id=":gneJ2_3_2" index="2" speed="60.00" length="12.36" shape="985.54,95.20 997.91,95.20"/>
        <lane id=":gneJ2_3_3" index="3" speed="60.00" length="12.36" shape="985.54,98.40 997.91,98.40"/>
    </edge>
    <edge id=":gneJ20_0" function="internal">
        <lane id=":gneJ20_0_0" index="0" speed="6.51" length="9.03" shape="298.40,-492.80 298.05,-495.25 297.00,-497.00 295.25,-498.05 292.80,-498.40"/>
    </edge>
    <edge id=":gneJ20_1" function="internal">
        <lane id=":gneJ20_1_0" index="0" speed="30.00" length="14.40" shape="298.40,-492.80 298.40,-507.20"/>
    </edge>
    <edge id=":gneJ20_2" function="internal">
        <lane id=":gneJ20_2_0" index="0" speed="8.00" length="14.19" shape="298.40,-492.80 298.95,-496.65 300.60,-499.40 303.35,-501.05 307.20,-501.60"/>
    </edge>
    <edge id=":gneJ20_3" function="internal">
        <lane id=":gneJ20_3_0" index="0" speed="6.51" length="9.03" shape="307.20,-498.40 304.75,-498.05 303.00,-497.00 301.95,-495.25 301.60,-492.80"/>
    </edge>
    <edge id=":gneJ20_4" function="internal">
        <lane id=":gneJ20_4_0" index="0" speed="30.00" length="14.40" shape="307.20,-498.40 292.80,-498.40"/>
    </edge>
    <edge id=":gneJ20_5" function="internal">
        <lane id=":gneJ20_5_0" index="0" speed="8.00" length="5.93" shape="307.20,-498.40 303.35,-498.95 301.60,-500.00"/>
    </edge>
    <edge id=":gneJ20_12" function="internal">
        <lane id=":gneJ20_12_0" index="0" speed="8.00" length="8.26" shape="301.60,-500.00 300.60,-500.60 298.95,-503.35 298.40,-507.20"/>
    </edge>
    <edge id=":gneJ20_6" function="internal">
        <lane id=":gneJ20_6_0" index="0" speed="6.51" length="9.03" shape="301.60,-507.20 301.95,-504.75 303.00,-503.00 304.75,-501.95 307.20,-501.60"/>
    </edge>
    <edge id=":gneJ20_7" function="internal">
        <lane id=":gneJ20_7_0" index="0" speed="30.00" length="14.40" shape="301.60,-507.20 301.60,-492.80"/>
    </edge>
    <edge id=":gneJ20_8" function="internal">
        <lane id=":gneJ20_8_0" index="0" speed="8.00" length="14.19" shape="301.60,-507.20 301.05,-503.35 299.40,-500.60 296.65,-498.95 292.80,-498.40"/>
    </edge>
    <edge id=":gneJ20_9" function="internal">
        <lane id=":gneJ20_9_0" index="0" speed="6.51" length="9.03" shape="292.80,-501.60 295.25,-501.95 297.00,-503.00 298.05,-504.75 298.40,-507.20"/>
    </edge>
    <edge id=":gneJ20_10" function="internal">
        <lane id=":gneJ20_10_0" index="0" speed="30.00" length="14.40" shape="292.80,-501.60 307.20,-501.60"/>
    </edge>
    <edge id=":gneJ20_11" function="internal">
        <lane id=":gneJ20_11_0" index="0" speed="8.00" length="5.93" shape="292.80,-501.60 296.65,-501.05 298.40,-500.00"/>
    </edge>
    <edge id=":gneJ20_13" function="internal">
        <lane id=":gneJ20_13_0" index="0" speed="8.00" length="8.26" shape="298.40,-500.00 299.40,-499.40 301.05,-496.65 301.60,-492.80"/>
    </edge>
    <edge id=":gneJ21_0" function="internal">
        <lane id=":gneJ21_0_0" index="0" speed="6.51" length="9.03" shape="898.40,-292.80 898.05,-295.25 897.00,-297.00 895.25,-298.05 892.80,-298.40"/>
    </edge>
    <edge id=":gneJ21_1" function="internal">
        <lane id=":gneJ21_1_0" index="0" speed="8.00" length="14.19" shape="898.40,-292.80 898.95,-296.65 900.60,-299.40 903.35,-301.05 907.20,-301.60"/>
    </edge>
    <edge id=":gneJ21_2" function="internal">
        <lane id=":gneJ21_2_0" index="0" speed="6.51" length="9.03" shape="907.20,-298.40 904.75,-298.05 903.00,-297.00 901.95,-295.25 901.60,-292.80"/>
    </edge>
    <edge id=":gneJ21_3" function="internal">
        <lane id=":gneJ21_3_0" index="0" speed="30.00" length="14.40" shape="907.20,-298.40 892.80,-298.40"/>
    </edge>
    <edge id=":gneJ21_4" function="internal">
        <lane id=":gneJ21_4_0" index="0" speed="30.00" length="14.40" shape="892.80,-301.60 907.20,-301.60"/>
    </edge>
    <edge id=":gneJ21_5" function="internal">
        <lane id=":gneJ21_5_0" index="0" speed="8.00" length="5.93" shape="892.80,-301.60 896.65,-301.05 898.40,-300.00"/>
    </edge>
    <edge id=":gneJ21_6" function="internal">
        <lane id=":gneJ21_6_0" index="0" speed="8.00" length="8.26" shape="898.40,-300.00 899.40,-299.40 901.05,-296.65 901.60,-292.80"/>
    </edge>
    <edge id=":gneJ24_0" function="internal">
        <lane id=":gneJ24_0_0" index="0" speed="6.51" length="9.03" shape="898.40,-492.80 898.05,-495.25 897.00,-497.00 895.25,-498.05 892.80,-498.40"/>
    </edge>
    <edge id=":gneJ24_1" function="internal">
        <lane id=":gneJ24_1_0" index="0" speed="30.00" length="14.40" shape="898.40,-492.80 898.40,-507.20"/>
    </edge>
    <edge id=":gneJ24_2" function="internal">
        <lane id=":gneJ24_2_0" index="0" speed="8.00" length="14.19" shape="898.40,-492.80 898.95,-496.65 900.60,-499.40 903.35,-501.05 907.20,-501.60"/>
    </edge>
    <edge id=":gneJ24_3" function="internal">
        <lane id=":gneJ24_3_0" index="0" speed="6.51" length="9.03" shape="907.20,-498.40 904.75,-498.05 903.00,-497.00 901.95,-495.25 901.60,-492.80"/>
    </edge>
    <edge id=":gneJ24_4" function="internal">
        <lane id=":gneJ24_4_0" index="0" speed="30.00" length="14.40" shape="907.20,-498.40 892.80,-498.40"/>
    </edge>
    <edge id=":gneJ24_5" function="internal">
        <lane id=":gneJ24_5_0" index="0" speed="8.00" length="5.93" shape="907.20,-498.40 903.35,-498.95 901.60,-500.00"/>
    </edge>
    <edge id=":gneJ24_12" function="internal">
        <lane id=":gneJ24_12_0" index="0" speed="8.00" length="8.26" shape="901.60,-500.00 900.60,-500.60 898.95,-503.35 898.40,-507.20"/>
    </edge>
    <edge id=":gneJ24_6" function="internal">
        <lane id=":gneJ24_6_0" index="0" speed="6.51" length="9.03" shape="901.60,-507.20 901.95,-504.75 903.00,-503.00 904.75,-501.95 907.20,-501.60"/>
    </edge>
    <edge id=":gneJ24_7" function="internal">
        <lane id=":gneJ24_7_0" index="0" speed="30.00" length="14.40" shape="901.60,-507.20 901.60,-492.80"/>
    </edge>
    <edge id=":gneJ24_8" function="internal">
        <lane id=":gneJ24_8_0" index="0" speed="8.00" length="14.19" shape="901.60,-507.20 901.05,-503.35 899.40,-500.60 896.65,-498.95 892.80,-498.40"/>
    </edge>
    <edge id=":gneJ24_9" function="internal">
        <lane id=":gneJ24_9_0" index="0" speed="6.51" length="9.03" shape="892.80,-501.60 895.25,-501.95 897.00,-503.00 898.05,-504.75 898.40,-507.20"/>
    </edge>
    <edge id=":gneJ24_10" function="internal">
        <lane id=":gneJ24_10_0" index="0" speed="30.00" length="14.40" shape="892.80,-501.60 907.20,-501.60"/>
    </edge>
    <edge id=":gneJ24_11" function="internal">
        <lane id=":gneJ24_11_0" index="0" speed="8.00" length="5.93" shape="892.80,-501.60 896.65,-501.05 898.40,-500.00"/>
    </edge>
    <edge id=":gneJ24_13" function="internal">
        <lane id=":gneJ24_13_0" index="0" speed="8.00" length="8.26" shape="898.40,-500.00 899.40,-499.40 901.05,-496.65 901.60,-492.80"/>
    </edge>
    <edge id=":gneJ25_0" function="internal">
        <lane id=":gneJ25_0_0" index="0" speed="6.51" length="9.03" shape="598.40,-292.80 598.05,-295.25 597.00,-297.00 595.25,-298.05 592.80,-298.40"/>
    </edge>
    <edge id=":gneJ25_1" function="internal">
        <lane id=":gneJ25_1_0" index="0" speed="30.00" length="14.40" shape="598.40,-292.80 598.40,-307.20"/>
    </edge>
    <edge id=":gneJ25_2" function="internal">
        <lane id=":gneJ25_2_0" index="0" speed="8.00" length="14.19" shape="598.40,-292.80 598.95,-296.65 600.60,-299.40 603.35,-301.05 607.20,-301.60"/>
    </edge>
    <edge id=":gneJ25_3" function="internal">
        <lane id=":gneJ25_3_0" index="0" speed="6.51" length="9.03" shape="607.20,-298.40 604.75,-298.05 603.00,-297.00 601.95,-295.25 601.60,-292.80"/>
    </edge>
    <edge id=":gneJ25_4" function="internal">
        <lane id=":gneJ25_4_0" index="0" speed="30.00" length="14.40" shape="607.20,-298.40 592.80,-298.40"/>
    </edge>
    <edge id=":gneJ25_5" function="internal">
        <lane id=":gneJ25_5_0" index="0" speed="8.00" length="14.19" shape="607.20,-298.40 603.35,-298.95 600.60,-300.60 598.95,-303.35 598.40,-307.20"/>
    </edge>
    <edge id=":gneJ25_6" function="internal">
        <lane id=":gneJ25_6_0" index="0" speed="6.51" length="9.03" shape="601.60,-307.20 601.95,-304.75 603.00,-303.00 604.75,-301.95 607.20,-301.60"/>
    </edge>
    <edge id=":gneJ25_7" function="internal">
        <lane id=":gneJ25_7_0" index="0" speed="30.00" length="14.40" shape="601.60,-307.20 601.60,-292.80"/>
    </edge>
    <edge id=":gneJ25_8" function="internal">
        <lane id=":gneJ25_8_0" index="0" speed="8.00" length="14.19" shape="601.60,-307.20 601.05,-303.35 599.40,-300.60 596.65,-298.95 592.80,-298.40"/>
    </edge>
    <edge id=":gneJ25_9" function="internal">
        <lane id=":gneJ25_9_0" index="0" speed="6.51" length="9.03" shape="592.80,-301.60 595.25,-301.95 597.00,-303.00 598.05,-304.75 598.40,-307.20"/>
    </edge>
    <edge id=":gneJ25_10" function="internal">
        <lane id=":gneJ25_10_0" index="0" speed="30.00" length="14.40" shape="592.80,-301.60 607.20,-301.60"/>
    </edge>
    <edge id=":gneJ25_11" function="internal">
        <lane id=":gneJ25_11_0" index="0" speed="8.00" length="4.12" shape="592.80,-301.60 596.65,-301.05 596.85,-300.93"/>
    </edge>
    <edge id=":gneJ25_12" function="internal">
        <lane id=":gneJ25_12_0" index="0" speed="8.00" length="10.08" shape="596.85,-300.93 599.40,-299.40 601.05,-296.65 601.60,-292.80"/>
    </edge>
    <edge id=":gneJ26_0" function="internal">
        <lane id=":gneJ26_0_0" index="0" speed="6.51" length="9.03" shape="598.40,-492.80 598.05,-495.25 597.00,-497.00 595.25,-498.05 592.80,-498.40"/>
    </edge>
    <edge id=":gneJ26_1" function="internal">
        <lane id=":gneJ26_1_0" index="0" speed="30.00" length="14.40" shape="598.40,-492.80 598.40,-507.20"/>
    </edge>
    <edge id=":gneJ26_2" function="internal">
        <lane id=":gneJ26_2_0" index="0" speed="8.00" length="14.19" shape="598.40,-492.80 598.95,-496.65 600.60,-499.40 603.35,-501.05 607.20,-501.60"/>
    </edge>
    <edge id=":gneJ26_3" function="internal">
        <lane id=":gneJ26_3_0" index="0" speed="6.51" length="9.03" shape="607.20,-498.40 604.75,-498.05 603.00,-497.00 601.95,-495.25 601.60,-492.80"/>
    </edge>
    <edge id=":gneJ26_4" function="internal">
        <lane id=":gneJ26_4_0" index="0" speed="30.00" length="14.40" shape="607.20,-498.40 592.80,-498.40"/>
    </edge>
    <edge id=":gneJ26_5" function="internal">
        <lane id=":gneJ26_5_0" index="0" speed="8.00" length="4.12" shape="607.20,-498.40 603.35,-498.95 603.15,-499.07"/>
    </edge>
    <edge id=":gneJ26_12" function="internal">
        <lane id=":gneJ26_12_0" index="0" speed="8.00" length="10.08" shape="603.15,-499.07 600.60,-500.60 598.95,-503.35 598.40,-507.20"/>
    </edge>
    <edge id=":gneJ26_6" function="internal">
        <lane id=":gneJ26_6_0" index="0" speed="6.51" length="9.03" shape="601.60,-507.20 601.95,-504.75 603.00,-503.00 604.75,-501.95 607.20,-501.60"/>
    </edge>
    <edge id=":gneJ26_7" function="internal">
        <lane id=":gneJ26_7_0" index="0" speed="30.00" length="14.40" shape="601.60,-507.20 601.60,-492.80"/>
    </edge>
    <edge id=":gneJ26_8" function="internal">
        <lane id=":gneJ26_8_0" index="0" speed="8.00" length="14.19" shape="601.60,-507.20 601.05,-503.35 599.40,-500.60 596.65,-498.95 592.80,-498.40"/>
    </edge>
    <edge id=":gneJ26_9" function="internal">
        <lane id=":gneJ26_9_0" index="0" speed="6.51" length="9.03" shape="592.80,-501.60 595.25,-501.95 597.00,-503.00 598.05,-504.75 598.40,-507.20"/>
    </edge>
    <edge id=":gneJ26_10" function="internal">
        <lane id=":gneJ26_10_0" index="0" speed="30.00" length="14.40" shape="592.80,-501.60 607.20,-501.60"/>
    </edge>
    <edge id=":gneJ26_11" function="internal">
        <lane id=":gneJ26_11_0" index="0" speed="8.00" length="14.19" shape="592.80,-501.60 596.65,-501.05 599.40,-499.40 601.05,-496.65 601.60,-492.80"/>
    </edge>
    <edge id=":gneJ32_0" function="internal">
        <lane id=":gneJ32_0_0" index="0" speed="6.08" length="7.74" shape="903.20,-198.40 901.10,-198.70 899.60,-199.60 898.70,-201.10 898.40,-203.20"/>
    </edge>
    <edge id=":gneJ32_1" function="internal">
        <lane id=":gneJ32_1_0" index="0" speed="3.90" length="2.58" shape="901.60,-203.20 901.70,-202.50 902.00,-202.00 902.50,-201.70 903.20,-201.60"/>
    </edge>
    <edge id=":gneJ34_0" function="internal">
        <lane id=":gneJ34_0_0" index="0" speed="6.08" length="7.74" shape="903.20,-398.40 901.10,-398.70 899.60,-399.60 898.70,-401.10 898.40,-403.20"/>
    </edge>
    <edge id=":gneJ34_1" function="internal">
        <lane id=":gneJ34_1_0" index="0" speed="3.90" length="2.58" shape="901.60,-403.20 901.70,-402.50 902.00,-402.00 902.50,-401.70 903.20,-401.60"/>
    </edge>
    <edge id=":gneJ37_0" function="internal">
        <lane id=":gneJ37_0_0" index="0" speed="6.08" length="7.74" shape="898.40,-596.80 898.70,-598.90 899.60,-600.40 901.10,-601.30 903.20,-601.60"/>
    </edge>
    <edge id=":gneJ37_1" function="internal">
        <lane id=":gneJ37_1_0" index="0" speed="3.90" length="2.58" shape="903.20,-598.40 902.50,-598.30 902.00,-598.00 901.70,-597.50 901.60,-596.80"/>
    </edge>
    <edge id=":gneJ4_0" function="internal">
        <lane id=":gneJ4_0_0" index="0" speed="6.51" length="9.03" shape="404.80,-110.40 405.15,-107.95 406.20,-106.20 407.95,-105.15 410.40,-104.80"/>
    </edge>
    <edge id=":gneJ4_1" function="internal">
        <lane id=":gneJ4_1_0" index="0" speed="8.00" length="14.19" shape="401.60,-110.40 402.15,-106.55 403.80,-103.80 406.55,-102.15 410.40,-101.60"/>
    </edge>
    <edge id=":gneJ4_2" function="internal">
        <lane id=":gneJ4_2_0" index="0" speed="11.75" length="12.73" shape="391.90,-98.69 394.23,-101.48 395.16,-103.88 395.29,-106.61 395.20,-110.40"/>
    </edge>
    <edge id=":gneJ4_3" function="internal">
        <lane id=":gneJ4_3_0" index="0" speed="12.31" length="14.01" shape="391.90,-98.69 394.92,-101.58 396.93,-103.81 398.05,-106.41 398.40,-110.40"/>
    </edge>
    <edge id=":gneJ4_4" function="internal">
        <lane id=":gneJ4_4_0" index="0" speed="13.70" length="12.03" shape="394.17,-96.43 397.12,-98.69 400.81,-100.31 404.99,-101.22"/>
    </edge>
    <edge id=":gneJ4_5" function="internal">
        <lane id=":gneJ4_5_0" index="0" speed="13.70" length="5.43" shape="404.99,-101.22 405.24,-101.28 410.40,-101.60"/>
    </edge>
    <edge id=":gneJ40_0" function="internal">
        <lane id=":gneJ40_0_0" index="0" speed="6.08" length="7.74" shape="301.60,-403.20 301.30,-401.10 300.40,-399.60 298.90,-398.70 296.80,-398.40"/>
    </edge>
    <edge id=":gneJ40_1" function="internal">
        <lane id=":gneJ40_1_0" index="0" speed="3.90" length="2.58" shape="296.80,-401.60 297.50,-401.70 298.00,-402.00 298.30,-402.50 298.40,-403.20"/>
    </edge>
    <edge id=":gneJ42_0" function="internal">
        <lane id=":gneJ42_0_0" index="0" speed="3.90" length="2.58" shape="298.40,-596.80 298.30,-597.50 298.00,-598.00 297.50,-598.30 296.80,-598.40"/>
    </edge>
    <edge id=":gneJ42_1" function="internal">
        <lane id=":gneJ42_1_0" index="0" speed="6.08" length="7.74" shape="296.80,-601.60 298.90,-601.30 300.40,-600.40 301.30,-598.90 301.60,-596.80"/>
    </edge>
    <edge id=":gneJ5_0" function="internal">
        <lane id=":gneJ5_0_0" index="0" speed="6.51" length="9.03" shape="395.20,-292.80 394.85,-295.25 393.80,-297.00 392.05,-298.05 389.60,-298.40"/>
    </edge>
    <edge id=":gneJ5_1" function="internal">
        <lane id=":gneJ5_1_0" index="0" speed="50.00" length="14.40" shape="395.20,-292.80 395.20,-307.20"/>
        <lane id=":gneJ5_1_1" index="1" speed="50.00" length="14.40" shape="398.40,-292.80 398.40,-307.20"/>
    </edge>
    <edge id=":gneJ5_3" function="internal">
        <lane id=":gneJ5_3_0" index="0" speed="8.67" length="5.26" shape="398.40,-292.80 399.15,-296.65 400.00,-297.69"/>
    </edge>
    <edge id=":gneJ5_14" function="internal">
        <lane id=":gneJ5_14_0" index="0" speed="8.67" length="11.59" shape="400.00,-297.69 401.40,-299.40 405.15,-301.05 410.40,-301.60"/>
    </edge>
    <edge id=":gneJ5_4" function="internal">
        <lane id=":gneJ5_4_0" index="0" speed="6.51" length="9.03" shape="410.40,-298.40 407.95,-298.05 406.20,-297.00 405.15,-295.25 404.80,-292.80"/>
    </edge>
    <edge id=":gneJ5_5" function="internal">
        <lane id=":gneJ5_5_0" index="0" speed="30.00" length="20.80" shape="410.40,-298.40 389.60,-298.40"/>
    </edge>
    <edge id=":gneJ5_6" function="internal">
        <lane id=":gneJ5_6_0" index="0" speed="8.67" length="7.89" shape="410.40,-298.40 405.15,-298.95 402.76,-300.00"/>
    </edge>
    <edge id=":gneJ5_15" function="internal">
        <lane id=":gneJ5_15_0" index="0" speed="8.67" length="8.97" shape="402.76,-300.00 401.40,-300.60 399.15,-303.35 398.40,-307.20"/>
    </edge>
    <edge id=":gneJ5_7" function="internal">
        <lane id=":gneJ5_7_0" index="0" speed="6.51" length="9.03" shape="404.80,-307.20 405.15,-304.75 406.20,-303.00 407.95,-301.95 410.40,-301.60"/>
    </edge>
    <edge id=":gneJ5_8" function="internal">
        <lane id=":gneJ5_8_0" index="0" speed="50.00" length="14.40" shape="404.80,-307.20 404.80,-292.80"/>
        <lane id=":gneJ5_8_1" index="1" speed="50.00" length="14.40" shape="401.60,-307.20 401.60,-292.80"/>
    </edge>
    <edge id=":gneJ5_10" function="internal">
        <lane id=":gneJ5_10_0" index="0" speed="8.67" length="5.26" shape="401.60,-307.20 400.85,-303.35 400.00,-302.31"/>
    </edge>
    <edge id=":gneJ5_16" function="internal">
        <lane id=":gneJ5_16_0" index="0" speed="8.67" length="11.59" shape="400.00,-302.31 398.60,-300.60 394.85,-298.95 389.60,-298.40"/>
    </edge>
    <edge id=":gneJ5_11" function="internal">
        <lane id=":gneJ5_11_0" index="0" speed="6.51" length="9.03" shape="389.60,-301.60 392.05,-301.95 393.80,-303.00 394.85,-304.75 395.20,-307.20"/>
    </edge>
    <edge id=":gneJ5_12" function="internal">
        <lane id=":gneJ5_12_0" index="0" speed="30.00" length="20.80" shape="389.60,-301.60 410.40,-301.60"/>
    </edge>
    <edge id=":gneJ5_13" function="internal">
        <lane id=":gneJ5_13_0" index="0" speed="8.67" length="7.89" shape="389.60,-301.60 394.85,-301.05 397.24,-300.00"/>
    </edge>
    <edge id=":gneJ5_17" function="internal">
        <lane id=":gneJ5_17_0" index="0" speed="8.67" length="8.97" shape="397.24,-300.00 398.60,-299.40 400.85,-296.65 401.60,-292.80"/>
    </edge>
    <edge id=":gneJ50_0" function="internal">
        <lane id=":gneJ50_0_0" index="0" speed="6.08" length="7.74" shape="301.60,-203.20 301.30,-201.10 300.40,-199.60 298.90,-198.70 296.80,-198.40"/>
    </edge>
    <edge id=":gneJ50_1" function="internal">
        <lane id=":gneJ50_1_0" index="0" speed="3.90" length="2.58" shape="296.80,-201.60 297.50,-201.70 298.00,-202.00 298.30,-202.50 298.40,-203.20"/>
    </edge>
    <edge id=":gneJ6_0" function="internal">
        <lane id=":gneJ6_0_0" index="0" speed="6.51" length="9.03" shape="395.20,-492.80 394.85,-495.25 393.80,-497.00 392.05,-498.05 389.60,-498.40"/>
    </edge>
    <edge id=":gneJ6_1" function="internal">
        <lane id=":gneJ6_1_0" index="0" speed="50.00" length="14.40" shape="395.20,-492.80 395.20,-507.20"/>
        <lane id=":gneJ6_1_1" index="1" speed="50.00" length="14.40" shape="398.40,-492.80 398.40,-507.20"/>
    </edge>
    <edge id=":gneJ6_3" function="internal">
        <lane id=":gneJ6_3_0" index="0" speed="50.00" length="14.40" shape="404.80,-507.20 404.80,-492.80"/>
        <lane id=":gneJ6_3_1" index="1" speed="50.00" length="14.40" shape="401.60,-507.20 401.60,-492.80"/>
    </edge>
    <edge id=":gneJ6_5" function="internal">
        <lane id=":gneJ6_5_0" index="0" speed="8.67" length="5.26" shape="401.60,-507.20 400.85,-503.35 400.00,-502.31"/>
    </edge>
    <edge id=":gneJ6_8" function="internal">
        <lane id=":gneJ6_8_0" index="0" speed="8.67" length="11.59" shape="400.00,-502.31 398.60,-500.60 394.85,-498.95 389.60,-498.40"/>
    </edge>
    <edge id=":gneJ6_6" function="internal">
        <lane id=":gneJ6_6_0" index="0" speed="6.51" length="9.03" shape="389.60,-501.60 392.05,-501.95 393.80,-503.00 394.85,-504.75 395.20,-507.20"/>
    </edge>
    <edge id=":gneJ6_7" function="internal">
        <lane id=":gneJ6_7_0" index="0" speed="8.67" length="16.85" shape="389.60,-501.60 394.85,-501.05 398.60,-499.40 400.85,-496.65 401.60,-492.80"/>
    </edge>
    <edge id=":gneJ9_0" function="internal">
        <lane id=":gneJ9_0_0" index="0" speed="6.51" length="9.03" shape="795.20,-492.80 794.85,-495.25 793.80,-497.00 792.05,-498.05 789.60,-498.40"/>
    </edge>
    <edge id=":gneJ9_1" function="internal">
        <lane id=":gneJ9_1_0" index="0" speed="50.00" length="14.40" shape="795.20,-492.80 795.20,-507.20"/>
        <lane id=":gneJ9_1_1" index="1" speed="50.00" length="14.40" shape="798.40,-492.80 798.40,-507.20"/>
    </edge>
    <edge id=":gneJ9_3" function="internal">
        <lane id=":gneJ9_3_0" index="0" speed="8.67" length="5.26" shape="798.40,-492.80 799.15,-496.65 800.00,-497.69"/>
    </edge>
    <edge id=":gneJ9_14" function="internal">
        <lane id=":gneJ9_14_0" index="0" speed="8.67" length="11.59" shape="800.00,-497.69 801.40,-499.40 805.15,-501.05 810.40,-501.60"/>
    </edge>
    <edge id=":gneJ9_4" function="internal">
        <lane id=":gneJ9_4_0" index="0" speed="6.51" length="9.03" shape="810.40,-498.40 807.95,-498.05 806.20,-497.00 805.15,-495.25 804.80,-492.80"/>
    </edge>
    <edge id=":gneJ9_5" function="internal">
        <lane id=":gneJ9_5_0" index="0" speed="30.00" length="20.80" shape="810.40,-498.40 789.60,-498.40"/>
    </edge>
    <edge id=":gneJ9_6" function="internal">
        <lane id=":gneJ9_6_0" index="0" speed="8.67" length="7.89" shape="810.40,-498.40 805.15,-498.95 802.76,-500.00"/>
    </edge>
    <edge id=":gneJ9_15" function="internal">
        <lane id=":gneJ9_15_0" index="0" speed="8.67" length="8.97" shape="802.76,-500.00 801.40,-500.60 799.15,-503.35 798.40,-507.20"/>
    </edge>
    <edge id=":gneJ9_7" function="internal">
        <lane id=":gneJ9_7_0" index="0" speed="6.51" length="9.03" shape="804.80,-507.20 805.15,-504.75 806.20,-503.00 807.95,-501.95 810.40,-501.60"/>
    </edge>
    <edge id=":gneJ9_8" function="internal">
        <lane id=":gneJ9_8_0" index="0" speed="50.00" length="14.40" shape="804.80,-507.20 804.80,-492.80"/>
        <lane id=":gneJ9_8_1" index="1" speed="50.00" length="14.40" shape="801.60,-507.20 801.60,-492.80"/>
    </edge>
    <edge id=":gneJ9_10" function="internal">
        <lane id=":gneJ9_10_0" index="0" speed="8.67" length="5.26" shape="801.60,-507.20 800.85,-503.35 800.00,-502.31"/>
    </edge>
    <edge id=":gneJ9_16" function="internal">