<?xml version="1.0" encoding="UTF-8"?>

<!-- generated on Mon Oct 15 17:04:53 2018 by Eclipse SUMO netedit Version 1.0.0
<configuration xmlns:xsi="http://www.w3.org/2001/XMLSchema-instance" xsi:noNamespaceSchemaLocation="http://sumo.dlr.de/xsd/netconvertConfiguration.xsd">

    <input>
        <sumo-net-file value="/Users/oykukapcak/PycharmProjects/APS_TrafficProject/more_complex_network/data/cross.net.xml"/>
    </input>

    <output>
        <output-file value="/Users/oykukapcak/PycharmProjects/APS_TrafficProject/more_complex_network/data/cross.net.xml"/>
    </output>

    <processing>
        <offset.disable-normalization value="true"/>
        <lefthand value="false"/>
    </processing>

    <junctions>
        <no-turnarounds value="true"/>
        <junctions.corner-detail value="5"/>
        <junctions.limit-turn-speed value="5.5"/>
        <rectangular-lane-cut value="false"/>
    </junctions>

    <pedestrian>
        <walkingareas value="false"/>
    </pedestrian>

</configuration>
-->

<net version="1.0" junctionCornerDetail="5" limitTurnSpeed="5.50" xmlns:xsi="http://www.w3.org/2001/XMLSchema-instance" xsi:noNamespaceSchemaLocation="http://sumo.dlr.de/xsd/net_file.xsd">

    <location netOffset="0.00,0.00" convBoundary="0.00,-600.00,800.00,0.00" origBoundary="-10000000000.00,-10000000000.00,10000000000.00,10000000000.00" projParameter="!"/>

    <edge id=":A_0" function="internal">
        <lane id=":A_0_0" index="0" speed="6.51" length="9.03" shape="195.20,-189.60 194.85,-192.05 193.80,-193.80 192.05,-194.85 189.60,-195.20"/>
    </edge>
    <edge id=":A_1" function="internal">
        <lane id=":A_1_0" index="0" speed="13.89" length="20.80" shape="195.20,-189.60 195.20,-210.40"/>
        <lane id=":A_1_1" index="1" speed="13.89" length="20.80" shape="198.40,-189.60 198.40,-210.40"/>
    </edge>
    <edge id=":A_3" function="internal">
        <lane id=":A_3_0" index="0" speed="9.26" length="6.96" shape="198.40,-189.60 199.15,-194.85 200.00,-196.27"/>
    </edge>
    <edge id=":A_16" function="internal">
        <lane id=":A_16_0" index="0" speed="9.26" length="12.40" shape="200.00,-196.27 201.40,-198.60 205.15,-200.85 210.40,-201.60"/>
    </edge>
    <edge id=":A_4" function="internal">
        <lane id=":A_4_0" index="0" speed="6.51" length="9.03" shape="210.40,-195.20 207.95,-194.85 206.20,-193.80 205.15,-192.05 204.80,-189.60"/>
    </edge>
    <edge id=":A_5" function="internal">
        <lane id=":A_5_0" index="0" speed="13.89" length="20.80" shape="210.40,-195.20 189.60,-195.20"/>
        <lane id=":A_5_1" index="1" speed="13.89" length="20.80" shape="210.40,-198.40 189.60,-198.40"/>
    </edge>
    <edge id=":A_7" function="internal">
        <lane id=":A_7_0" index="0" speed="9.26" length="6.96" shape="210.40,-198.40 205.15,-199.15 203.73,-200.00"/>
    </edge>
    <edge id=":A_17" function="internal">
        <lane id=":A_17_0" index="0" speed="9.26" length="12.40" shape="203.73,-200.00 201.40,-201.40 199.15,-205.15 198.40,-210.40"/>
    </edge>
    <edge id=":A_8" function="internal">
        <lane id=":A_8_0" index="0" speed="6.51" length="9.03" shape="204.80,-210.40 205.15,-207.95 206.20,-206.20 207.95,-205.15 210.40,-204.80"/>
    </edge>
    <edge id=":A_9" function="internal">
        <lane id=":A_9_0" index="0" speed="13.89" length="20.80" shape="204.80,-210.40 204.80,-189.60"/>
        <lane id=":A_9_1" index="1" speed="13.89" length="20.80" shape="201.60,-210.40 201.60,-189.60"/>
    </edge>
    <edge id=":A_11" function="internal">
        <lane id=":A_11_0" index="0" speed="9.26" length="6.96" shape="201.60,-210.40 200.85,-205.15 200.00,-203.73"/>
    </edge>
    <edge id=":A_18" function="internal">
        <lane id=":A_18_0" index="0" speed="9.26" length="12.40" shape="200.00,-203.73 198.60,-201.40 194.85,-199.15 189.60,-198.40"/>
    </edge>
    <edge id=":A_12" function="internal">
        <lane id=":A_12_0" index="0" speed="6.51" length="9.03" shape="189.60,-204.80 192.05,-205.15 193.80,-206.20 194.85,-207.95 195.20,-210.40"/>
    </edge>
    <edge id=":A_13" function="internal">
        <lane id=":A_13_0" index="0" speed="13.89" length="20.80" shape="189.60,-204.80 210.40,-204.80"/>
        <lane id=":A_13_1" index="1" speed="13.89" length="20.80" shape="189.60,-201.60 210.40,-201.60"/>
    </edge>
    <edge id=":A_15" function="internal">
        <lane id=":A_15_0" index="0" speed="9.26" length="6.96" shape="189.60,-201.60 194.85,-200.85 196.27,-200.00"/>
    </edge>
    <edge id=":A_19" function="internal">
        <lane id=":A_19_0" index="0" speed="9.26" length="12.40" shape="196.27,-200.00 198.60,-198.60 200.85,-194.85 201.60,-189.60"/>
    </edge>
    <edge id=":B_0" function="internal">
        <lane id=":B_0_0" index="0" speed="6.51" length="9.03" shape="595.20,-189.60 594.85,-192.05 593.80,-193.80 592.05,-194.85 589.60,-195.20"/>
    </edge>
    <edge id=":B_1" function="internal">
        <lane id=":B_1_0" index="0" speed="13.89" length="20.80" shape="595.20,-189.60 595.20,-210.40"/>
        <lane id=":B_1_1" index="1" speed="13.89" length="20.80" shape="598.40,-189.60 598.40,-210.40"/>
    </edge>
    <edge id=":B_3" function="internal">
        <lane id=":B_3_0" index="0" speed="9.26" length="6.96" shape="598.40,-189.60 599.15,-194.85 600.00,-196.27"/>
    </edge>
    <edge id=":B_16" function="internal">
        <lane id=":B_16_0" index="0" speed="9.26" length="12.40" shape="600.00,-196.27 601.40,-198.60 605.15,-200.85 610.40,-201.60"/>
    </edge>
    <edge id=":B_4" function="internal">
        <lane id=":B_4_0" index="0" speed="6.51" length="9.03" shape="610.40,-195.20 607.95,-194.85 606.20,-193.80 605.15,-192.05 604.80,-189.60"/>
    </edge>
    <edge id=":B_5" function="internal">
        <lane id=":B_5_0" index="0" speed="13.89" length="20.80" shape="610.40,-195.20 589.60,-195.20"/>
        <lane id=":B_5_1" index="1" speed="13.89" length="20.80" shape="610.40,-198.40 589.60,-198.40"/>
    </edge>
    <edge id=":B_7" function="internal">
        <lane id=":B_7_0" index="0" speed="9.26" length="6.96" shape="610.40,-198.40 605.15,-199.15 603.73,-200.00"/>
    </edge>
    <edge id=":B_17" function="internal">
        <lane id=":B_17_0" index="0" speed="9.26" length="12.40" shape="603.73,-200.00 601.40,-201.40 599.15,-205.15 598.40,-210.40"/>
    </edge>
    <edge id=":B_8" function="internal">
        <lane id=":B_8_0" index="0" speed="6.51" length="9.03" shape="604.80,-210.40 605.15,-207.95 606.20,-206.20 607.95,-205.15 610.40,-204.80"/>
    </edge>
    <edge id=":B_9" function="internal">
        <lane id=":B_9_0" index="0" speed="13.89" length="20.80" shape="604.80,-210.40 604.80,-189.60"/>
        <lane id=":B_9_1" index="1" speed="13.89" length="20.80" shape="601.60,-210.40 601.60,-189.60"/>
    </edge>
    <edge id=":B_11" function="internal">
        <lane id=":B_11_0" index="0" speed="9.26" length="6.96" shape="601.60,-210.40 600.85,-205.15 600.00,-203.73"/>
    </edge>
    <edge id=":B_18" function="internal">
        <lane id=":B_18_0" index="0" speed="9.26" length="12.40" shape="600.00,-203.73 598.60,-201.40 594.85,-199.15 589.60,-198.40"/>
    </edge>
    <edge id=":B_12" function="internal">
        <lane id=":B_12_0" index="0" speed="6.51" length="9.03" shape="589.60,-204.80 592.05,-205.15 593.80,-206.20 594.85,-207.95 595.20,-210.40"/>
    </edge>
    <edge id=":B_13" function="internal">
        <lane id=":B_13_0" index="0" speed="13.89" length="20.80" shape="589.60,-204.80 610.40,-204.80"/>
        <lane id=":B_13_1" index="1" speed="13.89" length="20.80" shape="589.60,-201.60 610.40,-201.60"/>
    </edge>
    <edge id=":B_15" function="internal">
        <lane id=":B_15_0" index="0" speed="9.26" length="6.96" shape="589.60,-201.60 594.85,-200.85 596.27,-200.00"/>
    </edge>
    <edge id=":B_19" function="internal">
        <lane id=":B_19_0" index="0" speed="9.26" length="12.40" shape="596.27,-200.00 598.60,-198.60 600.85,-194.85 601.60,-189.60"/>
    </edge>
    <edge id=":C_0" function="internal">
        <lane id=":C_0_0" index="0" speed="6.51" length="9.03" shape="595.20,-389.60 594.85,-392.05 593.80,-393.80 592.05,-394.85 589.60,-395.20"/>
    </edge>
    <edge id=":C_1" function="internal">
        <lane id=":C_1_0" index="0" speed="13.89" length="20.80" shape="595.20,-389.60 595.20,-410.40"/>
        <lane id=":C_1_1" index="1" speed="13.89" length="20.80" shape="598.40,-389.60 598.40,-410.40"/>
    </edge>
    <edge id=":C_3" function="internal">
        <lane id=":C_3_0" index="0" speed="9.26" length="6.96" shape="598.40,-389.60 599.15,-394.85 600.00,-396.27"/>
    </edge>
    <edge id=":C_16" function="internal">
        <lane id=":C_16_0" index="0" speed="9.26" length="12.40" shape="600.00,-396.27 601.40,-398.60 605.15,-400.85 610.40,-401.60"/>
    </edge>
    <edge id=":C_4" function="internal">
        <lane id=":C_4_0" index="0" speed="6.51" length="9.03" shape="610.40,-395.20 607.95,-394.85 606.20,-393.80 605.15,-392.05 604.80,-389.60"/>
    </edge>
    <edge id=":C_5" function="internal">
        <lane id=":C_5_0" index="0" speed="13.89" length="20.80" shape="610.40,-395.20 589.60,-395.20"/>
        <lane id=":C_5_1" index="1" speed="13.89" length="20.80" shape="610.40,-398.40 589.60,-398.40"/>
    </edge>
    <edge id=":C_7" function="internal">
        <lane id=":C_7_0" index="0" speed="9.26" length="6.96" shape="610.40,-398.40 605.15,-399.15 603.73,-400.00"/>
    </edge>
    <edge id=":C_17" function="internal">
        <lane id=":C_17_0" index="0" speed="9.26" length="12.40" shape="603.73,-400.00 601.40,-401.40 599.15,-405.15 598.40,-410.40"/>
    </edge>
    <edge id=":C_8" function="internal">
        <lane id=":C_8_0" index="0" speed="6.51" length="9.03" shape="604.80,-410.40 605.15,-407.95 606.20,-406.20 607.95,-405.15 610.40,-404.80"/>
    </edge>
    <edge id=":C_9" function="internal">
        <lane id=":C_9_0" index="0" speed="13.89" length="20.80" shape="604.80,-410.40 604.80,-389.60"/>
        <lane id=":C_9_1" index="1" speed="13.89" length="20.80" shape="601.60,-410.40 601.60,-389.60"/>
    </edge>
    <edge id=":C_11" function="internal">
        <lane id=":C_11_0" index="0" speed="9.26" length="6.96" shape="601.60,-410.40 600.85,-405.15 600.00,-403.73"/>
    </edge>
    <edge id=":C_18" function="internal">
        <lane id=":C_18_0" index="0" speed="9.26" length="12.40" shape="600.00,-403.73 598.60,-401.40 594.85,-399.15 589.60,-398.40"/>
    </edge>
    <edge id=":C_12" function="internal">
        <lane id=":C_12_0" index="0" speed="6.51" length="9.03" shape="589.60,-404.80 592.05,-405.15 593.80,-406.20 594.85,-407.95 595.20,-410.40"/>
    </edge>
    <edge id=":C_13" function="internal">
        <lane id=":C_13_0" index="0" speed="13.89" length="20.80" shape="589.60,-404.80 610.40,-404.80"/>
        <lane id=":C_13_1" index="1" speed="13.89" length="20.80" shape="589.60,-401.60 610.40,-401.60"/>
    </edge>
    <edge id=":C_15" function="internal">
        <lane id=":C_15_0" index="0" speed="9.26" length="6.96" shape="589.60,-401.60 594.85,-400.85 596.27,-400.00"/>
    </edge>
    <edge id=":C_19" function="internal">
        <lane id=":C_19_0" index="0" speed="9.26" length="12.40" shape="596.27,-400.00 598.60,-398.60 600.85,-394.85 601.60,-389.60"/>
    </edge>
    <edge id=":D_0" function="internal">
        <lane id=":D_0_0" index="0" speed="6.51" length="9.03" shape="195.20,-389.60 194.85,-392.05 193.80,-393.80 192.05,-394.85 189.60,-395.20"/>
    </edge>
    <edge id=":D_1" function="internal">
        <lane id=":D_1_0" index="0" speed="13.89" length="20.80" shape="195.20,-389.60 195.20,-410.40"/>
        <lane id=":D_1_1" index="1" speed="13.89" length="20.80" shape="198.40,-389.60 198.40,-410.40"/>
    </edge>
    <edge id=":D_3" function="internal">
        <lane id=":D_3_0" index="0" speed="9.26" length="6.96" shape="198.40,-389.60 199.15,-394.85 200.00,-396.27"/>
    </edge>
    <edge id=":D_16" function="internal">
        <lane id=":D_16_0" index="0" speed="9.26" length="12.40" shape="200.00,-396.27 201.40,-398.60 205.15,-400.85 210.40,-401.60"/>
    </edge>
    <edge id=":D_4" function="internal">
        <lane id=":D_4_0" index="0" speed="6.51" length="9.03" shape="210.40,-395.20 207.95,-394.85 206.20,-393.80 205.15,-392.05 204.80,-389.60"/>
    </edge>
    <edge id=":D_5" function="internal">
        <lane id=":D_5_0" index="0" speed="13.89" length="20.80" shape="210.40,-395.20 189.60,-395.20"/>
        <lane id=":D_5_1" index="1" speed="13.89" length="20.80" shape="210.40,-398.40 189.60,-398.40"/>
    </edge>
    <edge id=":D_7" function="internal">
        <lane id=":D_7_0" index="0" speed="9.26" length="6.96" shape="210.40,-398.40 205.15,-399.15 203.73,-400.00"/>
    </edge>
    <edge id=":D_17" function="internal">
        <lane id=":D_17_0" index="0" speed="9.26" length="12.40" shape="203.73,-400.00 201.40,-401.40 199.15,-405.15 198.40,-410.40"/>
    </edge>
    <edge id=":D_8" function="internal">
        <lane id=":D_8_0" index="0" speed="6.51" length="9.03" shape="204.80,-410.40 205.15,-407.95 206.20,-406.20 207.95,-405.15 210.40,-404.80"/>
    </edge>
    <edge id=":D_9" function="internal">
        <lane id=":D_9_0" index="0" speed="13.89" length="20.80" shape="204.80,-410.40 204.80,-389.60"/>
        <lane id=":D_9_1" index="1" speed="13.89" length="20.80" shape="201.60,-410.40 201.60,-389.60"/>
    </edge>
    <edge id=":D_11" function="internal">
        <lane id=":D_11_0" index="0" speed="9.26" length="6.96" shape="201.60,-410.40 200.85,-405.15 200.00,-403.73"/>
    </edge>
    <edge id=":D_18" function="internal">
        <lane id=":D_18_0" index="0" speed="9.26" length="12.40" shape="200.00,-403.73 198.60,-401.40 194.85,-399.15 189.60,-398.40"/>
    </edge>
    <edge id=":D_12" function="internal">
        <lane id=":D_12_0" index="0" speed="6.51" length="9.03" shape="189.60,-404.80 192.05,-405.15 193.80,-406.20 194.85,-407.95 195.20,-410.40"/>
    </edge>
    <edge id=":D_13" function="internal">
        <lane id=":D_13_0" index="0" speed="13.89" length="20.80" shape="189.60,-404.80 210.40,-404.80"/>
        <lane id=":D_13_1" index="1" speed="13.89" length="20.80" shape="189.60,-401.60 210.40,-401.60"/>
    </edge>
    <edge id=":D_15" function="internal">
        <lane id=":D_15_0" index="0" speed="9.26" length="6.96" shape="189.60,-401.60 194.85,-400.85 196.27,-400.00"/>
    </edge>
    <edge id=":D_19" function="internal">
        <lane id=":D_19_0" index="0" speed="9.26" length="12.40" shape="196.27,-400.00 198.60,-398.60 200.85,-394.85 201.60,-389.60"/>
    </edge>

    <edge id="A2B" from="A" to="B" priority="-1" length="400.00">
        <lane id="A2B_0" index="0" speed="13.89" length="400.00" shape="210.40,-204.80 589.60,-204.80"/>
        <lane id="A2B_1" index="1" speed="13.89" length="400.00" shape="210.40,-201.60 589.60,-201.60"/>
    </edge>
    <edge id="A2D" from="A" to="D" priority="-1" length="200.00">
        <lane id="A2D_0" index="0" speed="13.89" length="200.00" shape="195.20,-210.40 195.20,-389.60"/>
        <lane id="A2D_1" index="1" speed="13.89" length="200.00" shape="198.40,-210.40 198.40,-389.60"/>
    </edge>
    <edge id="A2n1" from="A" to="n1" priority="-1" length="200.00">
        <lane id="A2n1_0" index="0" speed="13.89" length="200.00" shape="204.80,-189.60 204.80,0.00"/>
        <lane id="A2n1_1" index="1" speed="13.89" length="200.00" shape="201.60,-189.60 201.60,0.00"/>
    </edge>
    <edge id="A2w1" from="A" to="w1" priority="-1" length="200.00">
        <lane id="A2w1_0" index="0" speed="13.89" length="200.00" shape="189.60,-195.20 0.00,-195.20"/>
        <lane id="A2w1_1" index="1" speed="13.89" length="200.00" shape="189.60,-198.40 0.00,-198.40"/>
    </edge>
    <edge id="B2A" from="B" to="A" priority="-1" length="400.00">
        <lane id="B2A_0" index="0" speed="13.89" length="400.00" shape="589.60,-195.20 210.40,-195.20"/>
        <lane id="B2A_1" index="1" speed="13.89" length="400.00" shape="589.60,-198.40 210.40,-198.40"/>
    </edge>
    <edge id="B2C" from="B" to="C" priority="-1" length="200.00">
        <lane id="B2C_0" index="0" speed="13.89" length="200.00" shape="595.20,-210.40 595.20,-389.60"/>
        <lane id="B2C_1" index="1" speed="13.89" length="200.00" shape="598.40,-210.40 598.40,-389.60"/>
    </edge>
    <edge id="B2e1" from="B" to="e1" priority="-1" length="200.00">
        <lane id="B2e1_0" index="0" speed="13.89" length="200.00" shape="610.40,-204.80 800.00,-204.80"/>
        <lane id="B2e1_1" index="1" speed="13.89" length="200.00" shape="610.40,-201.60 800.00,-201.60"/>
    </edge>
    <edge id="B2n2" from="B" to="n2" priority="-1" length="200.00">
        <lane id="B2n2_0" index="0" speed="13.89" length="200.00" shape="604.80,-189.60 604.80,0.00"/>
        <lane id="B2n2_1" index="1" speed="13.89" length="200.00" shape="601.60,-189.60 601.60,0.00"/>
    </edge>
    <edge id="C2B" from="C" to="B" priority="-1" length="200.00">
        <lane id="C2B_0" index="0" speed="13.89" length="200.00" shape="604.80,-389.60 604.80,-210.40"/>
        <lane id="C2B_1" index="1" speed="13.89" length="200.00" shape="601.60,-389.60 601.60,-210.40"/>
    </edge>
    <edge id="C2D" from="C" to="D" priority="-1" length="400.00">
        <lane id="C2D_0" index="0" speed="13.89" length="400.00" shape="589.60,-395.20 210.40,-395.20"/>
        <lane id="C2D_1" index="1" speed="13.89" length="400.00" shape="589.60,-398.40 210.40,-398.40"/>
    </edge>
    <edge id="C2e2" from="C" to="e2" priority="-1" length="200.00">
        <lane id="C2e2_0" index="0" speed="13.89" length="200.00" shape="610.40,-404.80 800.00,-404.80"/>
        <lane id="C2e2_1" index="1" speed="13.89" length="200.00" shape="610.40,-401.60 800.00,-401.60"/>
    </edge>
    <edge id="C2s2" from="C" to="s2" priority="-1" length="200.00">
        <lane id="C2s2_0" index="0" speed="13.89" length="200.00" shape="595.20,-410.40 595.20,-600.00"/>
        <lane id="C2s2_1" index="1" speed="13.89" length="200.00" shape="598.40,-410.40 598.40,-600.00"/>
    </edge>
    <edge id="D2A" from="D" to="A" priority="-1" length="200.00">
        <lane id="D2A_0" index="0" speed="13.89" length="200.00" shape="204.80,-389.60 204.80,-210.40"/>
        <lane id="D2A_1" index="1" speed="13.89" length="200.00" shape="201.60,-389.60 201.60,-210.40"/>
    </edge>
    <edge id="D2C" from="D" to="C" priority="-1" length="400.00">
        <lane id="D2C_0" index="0" speed="13.89" length="400.00" shape="210.40,-404.80 589.60,-404.80"/>
        <lane id="D2C_1" index="1" speed="13.89" length="400.00" shape="210.40,-401.60 589.60,-401.60"/>
    </edge>
    <edge id="D2s1" from="D" to="s1" priority="-1" length="200.00">
        <lane id="D2s1_0" index="0" speed="13.89" length="200.00" shape="195.20,-410.40 195.20,-600.00"/>
        <lane id="D2s1_1" index="1" speed="13.89" length="200.00" shape="198.40,-410.40 198.40,-600.00"/>
    </edge>
    <edge id="D2w2" from="D" to="w2" priority="-1">
        <lane id="D2w2_0" index="0" speed="13.89" length="189.60" shape="189.60,-395.20 0.00,-395.20"/>
        <lane id="D2w2_1" index="1" speed="13.89" length="189.60" shape="189.60,-398.40 0.00,-398.40"/>
    </edge>
    <edge id="e12B" from="e1" to="B" priority="-1" length="200.00">
        <lane id="e12B_0" index="0" speed="13.89" length="200.00" shape="800.00,-195.20 610.40,-195.20"/>
        <lane id="e12B_1" index="1" speed="13.89" length="200.00" shape="800.00,-198.40 610.40,-198.40"/>
    </edge>
    <edge id="e22C" from="e2" to="C" priority="-1" length="200.00">
        <lane id="e22C_0" index="0" speed="13.89" length="200.00" shape="800.00,-395.20 610.40,-395.20"/>
        <lane id="e22C_1" index="1" speed="13.89" length="200.00" shape="800.00,-398.40 610.40,-398.40"/>
    </edge>
    <edge id="n12A" from="n1" to="A" priority="-1" length="200.00">
        <lane id="n12A_0" index="0" speed="13.89" length="200.00" shape="195.20,0.00 195.20,-189.60"/>
        <lane id="n12A_1" index="1" speed="13.89" length="200.00" shape="198.40,0.00 198.40,-189.60"/>
    </edge>
    <edge id="n22B" from="n2" to="B" priority="-1" length="200.00">
        <lane id="n22B_0" index="0" speed="13.89" length="200.00" shape="595.20,0.00 595.20,-189.60"/>
        <lane id="n22B_1" index="1" speed="13.89" length="200.00" shape="598.40,0.00 598.40,-189.60"/>
    </edge>
    <edge id="s12D" from="s1" to="D" priority="-1" length="200.00">
        <lane id="s12D_0" index="0" speed="13.89" length="200.00" shape="204.80,-600.00 204.80,-410.40"/>
        <lane id="s12D_1" index="1" speed="13.89" length="200.00" shape="201.60,-600.00 201.60,-410.40"/>
    </edge>
    <edge id="s22C" from="s2" to="C" priority="-1" length="200.00">
        <lane id="s22C_0" index="0" speed="13.89" length="200.00" shape="604.80,-600.00 604.80,-410.40"/>
        <lane id="s22C_1" index="1" speed="13.89" length="200.00" shape="601.60,-600.00 601.60,-410.40"/>
    </edge>
    <edge id="w12A" from="w1" to="A" priority="-1" length="200.00">
        <lane id="w12A_0" index="0" speed="13.89" length="200.00" shape="0.00,-204.80 189.60,-204.80"/>
        <lane id="w12A_1" index="1" speed="13.89" length="200.00" shape="0.00,-201.60 189.60,-201.60"/>
    </edge>
    <edge id="w22D" from="w2" to="D" priority="-1" length="200.00">
        <lane id="w22D_0" index="0" speed="13.89" length="200.00" shape="0.00,-404.80 189.60,-404.80"/>
        <lane id="w22D_1" index="1" speed="13.89" length="200.00" shape="0.00,-401.60 189.60,-401.60"/>
    </edge>

    <tlLogic id="A" type="static" programID="0" offset="0">
        <phase duration="42" state="GGGgrrrrGGGgrrrr"/>
        <phase duration="3"  state="yyyyrrrryyyyrrrr"/>
        <phase duration="42" state="rrrrGGGgrrrrGGGg"/>
        <phase duration="3"  state="rrrryyyyrrrryyyy"/>
    </tlLogic>
    <tlLogic id="B" type="static" programID="0" offset="0">
        <phase duration="42" state="GGGgrrrrGGGgrrrr"/>
        <phase duration="3"  state="yyyyrrrryyyyrrrr"/>
        <phase duration="42" state="rrrrGGGgrrrrGGGg"/>
        <phase duration="3"  state="rrrryyyyrrrryyyy"/>
    </tlLogic>
    <tlLogic id="C" type="static" programID="0" offset="0">
        <phase duration="42" state="GGGgrrrrGGGgrrrr"/>
        <phase duration="3"  state="yyyyrrrryyyyrrrr"/>
        <phase duration="42" state="rrrrGGGgrrrrGGGg"/>
        <phase duration="3"  state="rrrryyyyrrrryyyy"/>
    </tlLogic>
    <tlLogic id="D" type="static" programID="0" offset="0">
        <phase duration="42" state="GGGgrrrrGGGgrrrr"/>
        <phase duration="3"  state="yyyyrrrryyyyrrrr"/>
        <phase duration="42" state="rrrrGGGgrrrrGGGg"/>
        <phase duration="3"  state="rrrryyyyrrrryyyy"/>
    </tlLogic>

    <junction id="A" type="traffic_light" x="200.00" y="-200.00" incLanes="n12A_0 n12A_1 B2A_0 B2A_1 D2A_0 D2A_1 w12A_0 w12A_1" intLanes=":A_0_0 :A_1_0 :A_1_1 :A_16_0 :A_4_0 :A_5_0 :A_5_1 :A_17_0 :A_8_0 :A_9_0 :A_9_1 :A_18_0 :A_12_0 :A_13_0 :A_13_1 :A_19_0" shape="193.60,-189.60 206.40,-189.60 206.84,-191.82 207.40,-192.60 208.18,-193.16 209.18,-193.49 210.40,-193.60 210.40,-206.40 208.18,-206.84 207.40,-207.40 206.84,-208.18 206.51,-209.18 206.40,-210.40 193.60,-210.40 193.16,-208.18 192.60,-207.40 191.82,-206.84 190.82,-206.51 189.60,-206.40 189.60,-193.60 191.82,-193.16 192.60,-192.60 193.16,-191.82 193.49,-190.82">
        <request index="0"  response="0000000000000000" foes="0000100001100000" cont="0"/>
        <request index="1"  response="1000000010000000" foes="1111100011100000" cont="0"/>
        <request index="2"  response="1000000010000000" foes="1111100011100000" cont="0"/>
        <request index="3"  response="1000011110000000" foes="1110011111100000" cont="1"/>
        <request index="4"  response="0000011000000000" foes="1000011000000000" cont="0"/>
        <request index="5"  response="0000111000001111" foes="1000111000001111" cont="0"/>
        <request index="6"  response="0000111000001111" foes="1000111000001111" cont="0"/>
        <request index="7"  response="0111111000001110" foes="0111111000001110" cont="1"/>
        <request index="8"  response="0000000000000000" foes="0110000000001000" cont="0"/>
        <request index="9"  response="1000000010000000" foes="1110000011111000" cont="0"/>
        <request index="10" response="1000000010000000" foes="1110000011111000" cont="0"/>
        <request index="11" response="1000000010000111" foes="1110000011100111" cont="1"/>
        <request index="12" response="0000000000000110" foes="0000000010000110" cont="0"/>
        <request index="13" response="0000111100001110" foes="0000111110001110" cont="0"/>
        <request index="14" response="0000111100001110" foes="0000111110001110" cont="0"/>
        <request index="15" response="0000111001111110" foes="0000111001111110" cont="1"/>
    </junction>
    <junction id="B" type="traffic_light" x="600.00" y="-200.00" incLanes="n22B_0 n22B_1 e12B_0 e12B_1 C2B_0 C2B_1 A2B_0 A2B_1" intLanes=":B_0_0 :B_1_0 :B_1_1 :B_16_0 :B_4_0 :B_5_0 :B_5_1 :B_17_0 :B_8_0 :B_9_0 :B_9_1 :B_18_0 :B_12_0 :B_13_0 :B_13_1 :B_19_0" shape="593.60,-189.60 606.40,-189.60 606.84,-191.82 607.40,-192.60 608.18,-193.16 609.18,-193.49 610.40,-193.60 610.40,-206.40 608.18,-206.84 607.40,-207.40 606.84,-208.18 606.51,-209.18 606.40,-210.40 593.60,-210.40 593.16,-208.18 592.60,-207.40 591.82,-206.84 590.82,-206.51 589.60,-206.40 589.60,-193.60 591.82,-193.16 592.60,-192.60 593.16,-191.82 593.49,-190.82">
        <request index="0"  response="0000000000000000" foes="0000100001100000" cont="0"/>
        <request index="1"  response="1000000010000000" foes="1111100011100000" cont="0"/>
        <request index="2"  response="1000000010000000" foes="1111100011100000" cont="0"/>
        <request index="3"  response="1000011110000000" foes="1110011111100000" cont="1"/>
        <request index="4"  response="0000011000000000" foes="1000011000000000" cont="0"/>
        <request index="5"  response="0000111000001111" foes="1000111000001111" cont="0"/>
        <request index="6"  response="0000111000001111" foes="1000111000001111" cont="0"/>
        <request index="7"  response="0111111000001110" foes="0111111000001110" cont="1"/>
        <request index="8"  response="0000000000000000" foes="0110000000001000" cont="0"/>
        <request index="9"  response="1000000010000000" foes="1110000011111000" cont="0"/>
        <request index="10" response="1000000010000000" foes="1110000011111000" cont="0"/>
        <request index="11" response="1000000010000111" foes="1110000011100111" cont="1"/>
        <request index="12" response="0000000000000110" foes="0000000010000110" cont="0"/>
        <request index="13" response="0000111100001110" foes="0000111110001110" cont="0"/>
        <request index="14" response="0000111100001110" foes="0000111110001110" cont="0"/>
        <request index="15" response="0000111001111110" foes="0000111001111110" cont="1"/>
    </junction>
    <junction id="C" type="traffic_light" x="600.00" y="-400.00" incLanes="B2C_0 B2C_1 e22C_0 e22C_1 s22C_0 s22C_1 D2C_0 D2C_1" intLanes=":C_0_0 :C_1_0 :C_1_1 :C_16_0 :C_4_0 :C_5_0 :C_5_1 :C_17_0 :C_8_0 :C_9_0 :C_9_1 :C_18_0 :C_12_0 :C_13_0 :C_13_1 :C_19_0" shape="593.60,-389.60 606.40,-389.60 606.84,-391.82 607.40,-392.60 608.18,-393.16 609.18,-393.49 610.40,-393.60 610.40,-406.40 608.18,-406.84 607.40,-407.40 606.84,-408.18 606.51,-409.18 606.40,-410.40 593.60,-410.40 593.16,-408.18 592.60,-407.40 591.82,-406.84 590.82,-406.51 589.60,-406.40 589.60,-393.60 591.82,-393.16 592.60,-392.60 593.16,-391.82 593.49,-390.82">
        <request index="0"  response="0000000000000000" foes="0000100001100000" cont="0"/>
        <request index="1"  response="1000000010000000" foes="1111100011100000" cont="0"/>
        <request index="2"  response="1000000010000000" foes="1111100011100000" cont="0"/>
        <request index="3"  response="1000011110000000" foes="1110011111100000" cont="1"/>
        <request index="4"  response="0000011000000000" foes="1000011000000000" cont="0"/>
        <request index="5"  response="0000111000001111" foes="1000111000001111" cont="0"/>
        <request index="6"  response="0000111000001111" foes="1000111000001111" cont="0"/>
        <request index="7"  response="0111111000001110" foes="0111111000001110" cont="1"/>
        <request index="8"  response="0000000000000000" foes="0110000000001000" cont="0"/>
        <request index="9"  response="1000000010000000" foes="1110000011111000" cont="0"/>
        <request index="10" response="1000000010000000" foes="1110000011111000" cont="0"/>
        <request index="11" response="1000000010000111" foes="1110000011100111" cont="1"/>
        <request index="12" response="0000000000000110" foes="0000000010000110" cont="0"/>
        <request index="13" response="0000111100001110" foes="0000111110001110" cont="0"/>
        <request index="14" response="0000111100001110" foes="0000111110001110" cont="0"/>
        <request index="15" response="0000111001111110" foes="0000111001111110" cont="1"/>
    </junction>
    <junction id="D" type="traffic_light" x="200.00" y="-400.00" incLanes="A2D_0 A2D_1 C2D_0 C2D_1 s12D_0 s12D_1 w22D_0 w22D_1" intLanes=":D_0_0 :D_1_0 :D_1_1 :D_16_0 :D_4_0 :D_5_0 :D_5_1 :D_17_0 :D_8_0 :D_9_0 :D_9_1 :D_18_0 :D_12_0 :D_13_0 :D_13_1 :D_19_0" shape="193.60,-389.60 206.40,-389.60 206.84,-391.82 207.40,-392.60 208.18,-393.16 209.18,-393.49 210.40,-393.60 210.40,-406.40 208.18,-406.84 207.40,-407.40 206.84,-408.18 206.51,-409.18 206.40,-410.40 193.60,-410.40 193.16,-408.18 192.60,-407.40 191.82,-406.84 190.82,-406.51 189.60,-406.40 189.60,-393.60 191.82,-393.16 192.60,-392.60 193.16,-391.82 193.49,-390.82">
        <request index="0"  response="0000000000000000" foes="0000100001100000" cont="0"/>
        <request index="1"  response="1000000010000000" foes="1111100011100000" cont="0"/>
        <request index="2"  response="1000000010000000" foes="1111100011100000" cont="0"/>