<routes>
        <vType id="typeCar" accel="0.8" decel="4.5" sigma="0.5" length="5" minGap="2.5" maxSpeed="16.67" guiShape="passenger"/>

        <route id="NS1" edges="n12A A2D D2s1" />
        <route id="NS2" edges="n22B B2C C2s2" />
        <route id="WE1" edges="w12A A2B B2e1" />
        <route id="WE2" edges="w22D D2C C2e2" />
        <route id="SN1" edges="s12D D2A A2n1" />
        <route id="SN2" edges="s22C C2B B2n2" />
        <route id="EW1" edges="e12B B2A A2w1" />
        <route id="EW2" edges="e22C C2D D2w2" />
        
    <vehicle id="car_0" type="typeCar" route="WE1" depart="2"/>
    <vehicle id="car_1" type="typeCar" route="WE2" depart="2"/>
    <vehicle id="car_2" type="typeCar" route="WE1" depart="5"/>
    <vehicle id="car_3" type="typeCar" route="WE2" depart="5"/>
    <vehicle id="car_4" type="typeCar" route="NS1" depart="6"/>
    <vehicle id="car_5" type="typeCar" route="NS2" depart="6"/>
    <vehicle id="car_6" type="typeCar" route="EW1" depart="10"/>
    <vehicle id="car_7" type="typeCar" route="EW2" depart="10"/>
    <vehicle id="car_8" type="typeCar" route="EW1" depart="11"/>
    <vehicle id="car_9" type="typeCar" route="EW2" depart="11"/>
    <vehicle id="car_10" type="typeCar" route="WE1" depart="13"/>
    <vehicle id="car_11" type="typeCar" route="WE2" depart="13"/>
    <vehicle id="car_12" type="typeCar" route="EW1" depart="13"/>
    <vehicle id="car_13" type="typeCar" route="EW2" depart="13"/>
    <vehicle id="car_14" type="typeCar" route="WE1" depart="15"/>
    <vehicle id="car_15" type="typeCar" route="WE2" depart="15"/>
    <vehicle id="car_16" type="typeCar" route="WE1" depart="23"/>
    <vehicle id="car_17" type="typeCar" route="WE2" depart="23"/>
    <vehicle id="car_18" type="typeCar" route="NS1" depart="24"/>
    <vehicle id="car_19" type="typeCar" route="NS2" depart="24"/>
    <vehicle id="car_20" type="typeCar" route="NS1" depart="25"/>
    <vehicle id="car_21" type="typeCar" route="NS2" depart="25"/>
    <vehicle id="car_22" type="typeCar" route="WE1" depart="32"/>
    <vehicle id="car_23" type="typeCar" route="WE2" depart="32"/>
    <vehicle id="car_24" type="typeCar" route="EW1" depart="32"/>
    <vehicle id="car_25" type="typeCar" route="EW2" depart="32"/>
    <vehicle id="car_26" type="typeCar" route="NS1" depart="35"/>
    <vehicle id="car_27" type="typeCar" route="NS2" depart="35"/>
    <vehicle id="car_28" type="typeCar" route="WE1" depart="35"/>
    <vehicle id="car_29" type="typeCar" route="WE2" depart="35"/>
    <vehicle id="car_30" type="typeCar" route="EW1" depart="38"/>
    <vehicle id="car_31" type="typeCar" route="EW2" depart="38"/>
    <vehicle id="car_32" type="typeCar" route="EW1" depart="39"/>
    <vehicle id="car_33" type="typeCar" route="EW2" depart="39"/>
    <vehicle id="car_34" type="typeCar" route="SN1" depart="43"/>
    <vehicle id="car_35" type="typeCar" route="SN2" depart="43"/>
    <vehicle id="car_36" type="typeCar" route="EW1" depart="43"/>
    <vehicle id="car_37" type="typeCar" route="EW2" depart="43"/>
    <vehicle id="car_38" type="typeCar" route="WE1" depart="46"/>
    <vehicle id="car_39" type="typeCar" route="WE2" depart="46"/>
    <vehicle id="car_40" type="typeCar" route="NS1" depart="52"/>
    <vehicle id="car_41" type="typeCar" route="NS2" depart="52"/>
    <vehicle id="car_42" type="typeCar" route="WE1" depart="52"/>
    <vehicle id="car_43" type="typeCar" route="WE2" depart="52"/>
    <vehicle id="car_44" type="typeCar" route="EW1" depart="53"/>
    <vehicle id="car_45" type="typeCar" route="EW2" depart="53"/>
    <vehicle id="car_46" type="typeCar" route="NS1" depart="56"/>
    <vehicle id="car_47" type="typeCar" route="NS2" depart="56"/>
    <vehicle id="car_48" type="typeCar" route="SN1" depart="58"/>
    <vehicle id="car_49" type="typeCar" route="SN2" depart="58"/>
    <vehicle id="car_50" type="typeCar" route="WE1" depart="58"/>
    <vehicle id="car_51" type="typeCar" route="WE2" depart="58"/>
    <vehicle id="car_52" type="typeCar" route="WE1" depart="59"/>
    <vehicle id="car_53" type="typeCar" route="WE2" depart="59"/>
    <vehicle id="car_54" type="typeCar" route="NS1" depart="61"/>
    <vehicle id="car_55" type="typeCar" route="NS2" depart="61"/>
    <vehicle id="car_56" type="typeCar" route="EW1" depart="61"/>
    <vehicle id="car_57" type="typeCar" route="EW2" depart="61"/>
    <vehicle id="car_58" type="typeCar" route="SN1" depart="62"/>
    <vehicle id="car_59" type="typeCar" route="SN2" depart="62"/>
    <vehicle id="car_60" type="typeCar" route="WE1" depart="63"/>
    <vehicle id="car_61" type="typeCar" route="WE2" depart="63"/>
    <vehicle id="car_62" type="typeCar" route="WE1" depart="65"/>
    <vehicle id="car_63" type="typeCar" route="WE2" depart="65"/>
    <vehicle id="car_64" type="typeCar" route="EW1" depart="66"/>
    <vehicle id="car_65" type="typeCar" route="EW2" depart="66"/>
    <vehicle id="car_66" type="typeCar" route="EW1" depart="67"/>
    <vehicle id="car_67" type="typeCar" route="EW2" depart="67"/>
    <vehicle id="car_68" type="typeCar" route="WE1" depart="68"/>
    <vehicle id="car_69" type="typeCar" route="WE2" depart="68"/>
    <vehicle id="car_70" type="typeCar" route="EW1" depart="68"/>
    <vehicle id="car_71" type="typeCar" route="EW2" depart="68"/>
    <vehicle id="car_72" type="typeCar" route="WE1" depart="69"/>
    <vehicle id="car_73" type="typeCar" route="WE2" depart="69"/>
    <vehicle id="car_74" type="typeCar" route="WE1" depart="73"/>
    <vehicle id="car_75" type="typeCar" route="WE2" depart="73"/>
    <vehicle id="car_76" type="typeCar" route="EW1" depart="75"/>
    <vehicle id="car_77" type="typeCar" route="EW2" depart="75"/>
    <vehicle id="car_78" type="typeCar" route="SN1" depart="78"/>
    <vehicle id="car_79" type="typeCar" route="SN2" depart="78"/>
    <vehicle id="car_80" type="typeCar" route="WE1" depart="80"/>
    <vehicle id="car_81" type="typeCar" route="WE2" depart="80"/>
    <vehicle id="car_82" type="typeCar" route="WE1" depart="82"/>
    <vehicle id="car_83" type="typeCar" route="WE2" depart="82"/>
    <vehicle id="car_84" type="typeCar" route="NS1" depart="83"/>
    <vehicle id="car_85" type="typeCar" route="NS2" depart="83"/>
    <vehicle id="car_86" type="typeCar" route="NS1" depart="84"/>
    <vehicle id="car_87" type="typeCar" route="NS2" depart="84"/>
    <vehicle id="car_88" type="typeCar" route="WE1" depart="84"/>
    <vehicle id="car_89" type="typeCar" route="WE2" depart="84"/>
    <vehicle id="car_90" type="typeCar" route="EW1" depart="86"/>
    <vehicle id="car_91" type="typeCar" route="EW2" depart="86"/>
    <vehicle id="car_92" type="typeCar" route="EW1" depart="88"/>
    <vehicle id="car_93" type="typeCar" route="EW2" depart="88"/>
    <vehicle id="car_94" type="typeCar" route="NS1" depart="89"/>
    <vehicle id="car_95" type="typeCar" route="NS2" depart="89"/>
    <vehicle id="car_96" type="typeCar" route="WE1" depart="90"/>
    <vehicle id="car_97" type="typeCar" route="WE2" depart="90"/>
    <vehicle id="car_98" type="typeCar" route="SN1" depart="92"/>
    <vehicle id="car_99" type="typeCar" route="SN2" depart="92"/>
    <vehicle id="car_100" type="typeCar" route="WE1" depart="92"/>
    <vehicle id="car_101" type="typeCar" route="WE2" depart="92"/>
    <vehicle id="car_102" type="typeCar" route="EW1" depart="93"/>
    <vehicle id="car_103" type="typeCar" route="EW2" depart="93"/>
    <vehicle id="car_104" type="typeCar" route="NS1" depart="94"/>
    <vehicle id="car_105" type="typeCar" route="NS2" depart="94"/>
    <vehicle id="car_106" type="typeCar" route="SN1" depart="98"/>
    <vehicle id="car_107" type="typeCar" route="SN2" depart="98"/>
    <vehicle id="car_108" type="typeCar" route="NS1" depart="99"/>
    <vehicle id="car_109" type="typeCar" route="NS2" depart="99"/>
    <vehicle id="car_110" type="typeCar" route="NS1" depart="102"/>
    <vehicle id="car_111" type="typeCar" route="NS2" depart="102"/>
    <vehicle id="car_112" type="typeCar" route="WE1" depart="103"/>
    <vehicle id="car_113" type="typeCar" route="WE2" depart="103"/>
    <vehicle id="car_114" type="typeCar" route="NS1" depart="105"/>
    <vehicle id="car_115" type="typeCar" route="NS2" depart="105"/>
    <vehicle id="car_116" type="typeCar" route="NS1" depart="112"/>
    <vehicle id="car_117" type="typeCar" route="NS2" depart="112"/>
    <vehicle id="car_118" type="typeCar" route="EW1" depart="112"/>
    <vehicle id="car_119" type="typeCar" route="EW2" depart="112"/>
    <vehicle id="car_120" type="typeCar" route="WE1" depart="115"/>
    <vehicle id="car_121" type="typeCar" route="WE2" depart="115"/>
    <vehicle id="car_122" type="typeCar" route="WE1" depart="117"/>
    <vehicle id="car_123" type="typeCar" route="WE2" depart="117"/>
    <vehicle id="car_124" type="typeCar" route="WE1" depart="118"/>
    <vehicle id="car_125" type="typeCar" route="WE2" depart="118"/>
    <vehicle id="car_126" type="typeCar" route="EW1" depart="119"/>
    <vehicle id="car_127" type="typeCar" route="EW2" depart="119"/>
    <vehicle id="car_128" type="typeCar" route="WE1" depart="120"/>
    <vehicle id="car_129" type="typeCar" route="WE2" depart="120"/>
    <vehicle id="car_130" type="typeCar" route="EW1" depart="123"/>
    <vehicle id="car_131" type="typeCar" route="EW2" depart="123"/>
    <vehicle id="car_132" type="typeCar" route="WE1" depart="127"/>
    <vehicle id="car_133" type="typeCar" route="WE2" depart="127"/>
    <vehicle id="car_134" type="typeCar" route="WE1" depart="128"/>
    <vehicle id="car_135" type="typeCar" route="WE2" depart="128"/>
    <vehicle id="car_136" type="typeCar" route="NS1" depart="129"/>
    <vehicle id="car_137" type="typeCar" route="NS2" depart="129"/>
    <vehicle id="car_138" type="typeCar" route="WE1" depart="131"/>
    <vehicle id="car_139" type="typeCar" route="WE2" depart="131"/>
    <vehicle id="car_140" type="typeCar" route="EW1" depart="132"/>
    <vehicle id="car_141" type="typeCar" route="EW2" depart="132"/>
    <vehicle id="car_142" type="typeCar" route="SN1" depart="133"/>
    <vehicle id="car_143" type="typeCar" route="SN2" depart="133"/>
    <vehicle id="car_144" type="typeCar" route="NS1" depart="135"/>
    <vehicle id="car_145" type="typeCar" route="NS2" depart="135"/>
    <vehicle id="car_146" type="typeCar" route="EW1" depart="137"/>
    <vehicle id="car_147" type="typeCar" route="EW2" depart="137"/>
    <vehicle id="car_148" type="typeCar" route="WE1" depart="140"/>
    <vehicle id="car_149" type="typeCar" route="WE2" depart="140"/>
    <vehicle id="car_150" type="typeCar" route="NS1" depart="142"/>
    <vehicle id="car_151" type="typeCar" route="NS2" depart="142"/>
    <vehicle id="car_152" type="typeCar" route="EW1" depart="143"/>
    <vehicle id="car_153" type="typeCar" route="EW2" depart="143"/>
    <vehicle id="car_154" type="typeCar" route="EW1" depart="144"/>
    <vehicle id="car_155" type="typeCar" route="EW2" depart="144"/>
    <vehicle id="car_156" type="typeCar" route="NS1" depart="147"/>
    <vehicle id="car_157" type="typeCar" route="NS2" depart="147"/>
    <vehicle id="car_158" type="typeCar" route="EW1" depart="152"/>
    <vehicle id="car_159" type="typeCar" route="EW2" depart="152"/>
    <vehicle id="car_160" type="typeCar" route="NS1" depart="154"/>
    <vehicle id="car_161" type="typeCar" route="NS2" depart="154"/>
    <vehicle id="car_162" type="typeCar" route="EW1" depart="157"/>
    <vehicle id="car_163" type="typeCar" route="EW2" depart="157"/>
    <vehicle id="car_164" type="typeCar" route="NS1" depart="158"/>
    <vehicle id="car_165" type="typeCar" route="NS2" depart="158"/>
    <vehicle id="car_166" type="typeCar" route="SN1" depart="159"/>
    <vehicle id="car_167" type="typeCar" route="SN2" depart="159"/>
    <vehicle id="car_168" type="typeCar" route="EW1" depart="159"/>
    <vehicle id="car_169" type="typeCar" route="EW2" depart="159"/>
    <vehicle id="car_170" type="typeCar" route="EW1" depart="160"/>
    <vehicle id="car_171" type="typeCar" route="EW2" depart="160"/>
    <vehicle id="car_172" type="typeCar" route="NS1" depart="161"/>
    <vehicle id="car_173" type="typeCar" route="NS2" depart="161"/>
    <vehicle id="car_174" type="typeCar" route="WE1" depart="161"/>
    <vehicle id="car_175" type="typeCar" route="WE2" depart="161"/>
    <vehicle id="car_176" type="typeCar" route="NS1" depart="164"/>
    <vehicle id="car_177" type="typeCar" route="NS2" depart="164"/>
    <vehicle id="car_178" type="typeCar" route="EW1" depart="166"/>
    <vehicle id="car_179" type="typeCar" route="EW2" depart="166"/>
    <vehicle id="car_180" type="typeCar" route="NS1" depart="168"/>
    <vehicle id="car_181" type="typeCar" route="NS2" depart="168"/>
    <vehicle id="car_182" type="typeCar" route="WE1" depart="170"/>
    <vehicle id="car_183" type="typeCar" route="WE2" depart="170"/>
    <vehicle id="car_184" type="typeCar" route="SN1" depart="171"/>
    <vehicle id="car_185" type="typeCar" route="SN2" depart="171"/>
    <vehicle id="car_186" type="typeCar" route="NS1" depart="174"/>
    <vehicle id="car_187" type="typeCar" route="NS2" depart="174"/>
    <vehicle id="car_188" type="typeCar" route="WE1" depart="174"/>
    <vehicle id="car_189" type="typeCar" route="WE2" depart="174"/>
    <vehicle id="car_190" type="typeCar" route="WE1" depart="176"/>
    <vehicle id="car_191" type="typeCar" route="WE2" depart="176"/>
    <vehicle id="car_192" type="typeCar" route="WE1" depart="177"/>
    <vehicle id="car_193" type="typeCar" route="WE2" depart="177"/>
    <vehicle id="car_194" type="typeCar" route="EW1" depart="177"/>
    <vehicle id="car_195" type="typeCar" route="EW2" depart="177"/>
    <vehicle id="car_196" type="typeCar" route="EW1" depart="178"/>
    <vehicle id="car_197" type="typeCar" route="EW2" depart="178"/>
    <vehicle id="car_198" type="typeCar" route="SN1" depart="187"/>
    <vehicle id="car_199" type="typeCar" route="SN2" depart="187"/>
    <vehicle id="car_200" type="typeCar" route="SN1" depart="189"/>
    <vehicle id="car_201" type="typeCar" route="SN2" depart="189"/>
    <vehicle id="car_202" type="typeCar" route="SN1" depart="191"/>
    <vehicle id="car_203" type="typeCar" route="SN2" depart="191"/>
    <vehicle id="car_204" type="typeCar" route="SN1" depart="193"/>
    <vehicle id="car_205" type="typeCar" route="SN2" depart="193"/>
    <vehicle id="car_206" type="typeCar" route="SN1" depart="194"/>
    <vehicle id="car_207" type="typeCar" route="SN2" depart="194"/>
    <vehicle id="car_208" type="typeCar" route="NS1" depart="195"/>
    <vehicle id="car_209" type="typeCar" route="NS2" depart="195"/>
    <vehicle id="car_210" type="typeCar" route="NS1" depart="196"/>
    <vehicle id="car_211" type="typeCar" route="NS2" depart="196"/>
    <vehicle id="car_212" type="typeCar" route="SN1" depart="197"/>
    <vehicle id="car_213" type="typeCar" route="SN2" depart="197"/>
    <vehicle id="car_214" type="typeCar" route="EW1" depart="199"/>
    <vehicle id="car_215" type="typeCar" route="EW2" depart="199"/>
    <vehicle id="car_216" type="typeCar" route="WE1" depart="202"/>
    <vehicle id="car_217" type="typeCar" route="WE2" depart="202"/>
    <vehicle id="car_218" type="typeCar" route="WE1" depart="203"/>
    <vehicle id="car_219" type="typeCar" route="WE2" depart="203"/>
    <vehicle id="car_220" type="typeCar" route="EW1" depart="206"/>
    <vehicle id="car_221" type="typeCar" route="EW2" depart="206"/>
    <vehicle id="car_222" type="typeCar" route="NS1" depart="207"/>
    <vehicle id="car_223" type="typeCar" route="NS2" depart="207"/>
    <vehicle id="car_224" type="typeCar" route="WE1" depart="207"/>
    <vehicle id="car_225" type="typeCar" route="WE2" depart="207"/>
    <vehicle id="car_226" type="typeCar" route="WE1" depart="208"/>
    <vehicle id="car_227" type="typeCar" route="WE2" depart="208"/>
    <vehicle id="car_228" type="typeCar" route="EW1" depart="208"/>
    <vehicle id="car_229" type="typeCar" route="EW2" depart="208"/>
    <vehicle id="car_230" type="typeCar" route="EW1" depart="209"/>
    <vehicle id="car_231" type="typeCar" route="EW2" depart="209"/>
    <vehicle id="car_232" type="typeCar" route="WE1" depart="210"/>
    <vehicle id="car_233" type="typeCar" route="WE2" depart="210"/>
    <vehicle id="car_234" type="typeCar" route="WE1" depart="215"/>
    <vehicle id="car_235" type="typeCar" route="WE2" depart="215"/>
    <vehicle id="car_236" type="typeCar" route="NS1" depart="219"/>
    <vehicle id="car_237" type="typeCar" route="NS2" depart="219"/>
    <vehicle id="car_238" type="typeCar" route="WE1" depart="226"/>
    <vehicle id="car_239" type="typeCar" route="WE2" depart="226"/>
    <vehicle id="car_240" type="typeCar" route="EW1" depart="226"/>
    <vehicle id="car_241" type="typeCar" route="EW2" depart="226"/>
    <vehicle id="car_242" type="typeCar" route="WE1" depart="227"/>
    <vehicle id="car_243" type="typeCar" route="WE2" depart="227"/>
    <vehicle id="car_244" type="typeCar" route="NS1" depart="229"/>
    <vehicle id="car_245" type="typeCar" route="NS2" depart="229"/>
    <vehicle id="car_246" type="typeCar" route="EW1" depart="239"/>
    <vehicle id="car_247" type="typeCar" route="EW2" depart="239"/>
    <vehicle id="car_248" type="typeCar" route="EW1" depart="242"/>
    <vehicle id="car_249" type="typeCar" route="EW2" depart="242"/>
    <vehicle id="car_250" type="typeCar" route="WE1" depart="243"/>
    <vehicle id="car_251" type="typeCar" route="WE2" depart="243"/>
    <vehicle id="car_252" type="typeCar" route="WE1" depart="244"/>
    <vehicle id="car_253" type="typeCar" route="WE2" depart="244"/>
    <vehicle id="car_254" type="typeCar" route="WE1" depart="248"/>
    <vehicle id="car_255" type="typeCar" route="WE2" depart="248"/>
    <vehicle id="car_256" type="typeCar" route="EW1" depart="249"/>
    <vehicle id="car_257" type="typeCar" route="EW2" depart="249"/>
    <vehicle id="car_258" type="typeCar" route="WE1" depart="252"/>
    <vehicle id="car_259" type="typeCar" route="WE2" depart="252"/>
    <vehicle id="car_260" type="typeCar" route="NS1" depart="253"/>
    <vehicle id="car_261" type="typeCar" route="NS2" depart="253"/>
    <vehicle id="car_262" type="typeCar" route="SN1" depart="254"/>
    <vehicle id="car_263" type="typeCar" route="SN2" depart="254"/>
    <vehicle id="car_264" type="typeCar" route="NS1" depart="263"/>
    <vehicle id="car_265" type="typeCar" route="NS2" depart="263"/>
    <vehicle id="car_266" type="typeCar" route="EW1" depart="263"/>
    <vehicle id="car_267" type="typeCar" route="EW2" depart="263"/>
    <vehicle id="car_268" type="typeCar" route="EW1" depart="265"/>
    <vehicle id="car_269" type="typeCar" route="EW2" depart="265"/>
    <vehicle id="car_270" type="typeCar" route="WE1" depart="266"/>
    <vehicle id="car_271" type="typeCar" route="WE2" depart="266"/>
    <vehicle id="car_272" type="typeCar" route="EW1" depart="267"/>
    <vehicle id="car_273" type="typeCar" route="EW2" depart="267"/>
    <vehicle id="car_274" type="typeCar" route="EW1" depart="268"/>
    <vehicle id="car_275" type="typeCar" route="EW2" depart="268"/>
    <vehicle id="car_276" type="typeCar" route="WE1" depart="272"/>
    <vehicle id="car_277" type="typeCar" route="WE2" depart="272"/>
    <vehicle id="car_278" type="typeCar" route="NS1" depart="273"/>
    <vehicle id="car_279" type="typeCar" route="NS2" depart="273"/>
    <vehicle id="car_280" type="typeCar" route="WE1" depart="273"/>
    <vehicle id="car_281" type="typeCar" route="WE2" depart="273"/>
    <vehicle id="car_282" type="typeCar" route="EW1" depart="273"/>
    <vehicle id="car_283" type="typeCar" route="EW2" depart="273"/>
    <vehicle id="car_284" type="typeCar" route="EW1" depart="276"/>
    <vehicle id="car_285" type="typeCar" route="EW2" depart="276"/>
    <vehicle id="car_286" type="typeCar" route="EW1" depart="277"/>
    <vehicle id="car_287" type="typeCar" route="EW2" depart="277"/>
    <vehicle id="car_288" type="typeCar" route="EW1" depart="278"/>
    <vehicle id="car_289" type="typeCar" route="EW2" depart="278"/>
    <vehicle id="car_290" type="typeCar" route="NS1" depart="285"/>
    <vehicle id="car_291" type="typeCar" route="NS2" depart="285"/>
    <vehicle id="car_292" type="typeCar" route="EW1" depart="285"/>
    <vehicle id="car_293" type="typeCar" route="EW2" depart="285"/>
    <vehicle id="car_294" type="typeCar" route="EW1" depart="288"/>
    <vehicle id="car_295" type="typeCar" route="EW2" depart="288"/>
    <vehicle id="car_296" type="typeCar" route="NS1" depart="291"/>
    <vehicle id="car_297" type="typeCar" route="NS2" depart="291"/>
    <vehicle id="car_298" type="typeCar" route="WE1" depart="292"/>
    <vehicle id="car_299" type="typeCar" route="WE2" depart="292"/>
    <vehicle id="car_300" type="typeCar" route="NS1" depart="293"/>
    <vehicle id="car_301" type="typeCar" route="NS2" depart="293"/>
    <vehicle id="car_302" type="typeCar" route="WE1" depart="295"/>
    <vehicle id="car_303" type="typeCar" route="WE2" depart="295"/>
    <vehicle id="car_304" type="typeCar" route="EW1" depart="299"/>
    <vehicle id="car_305" type="typeCar" route="EW2" depart="299"/>
    <vehicle id="car_306" type="typeCar" route="NS1" depart="300"/>
    <vehicle id="car_307" type="typeCar" route="NS2" depart="300"/>
    <vehicle id="car_308" type="typeCar" route="WE1" depart="300"/>
    <vehicle id="car_309" type="typeCar" route="WE2" depart="300"/>
    <vehicle id="car_310" type="typeCar" route="NS1" depart="301"/>
    <vehicle id="car_311" type="typeCar" route="NS2" depart="301"/>
    <vehicle id="car_312" type="typeCar" route="WE1" depart="301"/>
    <vehicle id="car_313" type="typeCar" route="WE2" depart="301"/>
    <vehicle id="car_314" type="typeCar" route="NS1" depart="302"/>
    <vehicle id="car_315" type="typeCar" route="NS2" depart="302"/>
    <vehicle id="car_316" type="typeCar" route="WE1" depart="302"/>
    <vehicle id="car_317" type="typeCar" route="WE2" depart="302"/>
    <vehicle id="car_318" type="typeCar" route="NS1" depart="313"/>
    <vehicle id="car_319" type="typeCar" route="NS2" depart="313"/>
    <vehicle id="car_320" type="typeCar" route="NS1" depart="316"/>
    <vehicle id="car_321" type="typeCar" route="NS2" depart="316"/>
    <vehicle id="car_322" type="typeCar" route="WE1" depart="316"/>
    <vehicle id="car_323" type="typeCar" route="WE2" depart="316"/>
    <vehicle id="car_324" type="typeCar" route="EW1" depart="318"/>
    <vehicle id="car_325" type="typeCar" route="EW2" depart="318"/>
    <vehicle id="car_326" type="typeCar" route="NS1" depart="319"/>
    <vehicle id="car_327" type="typeCar" route="NS2" depart="319"/>
    <vehicle id="car_328" type="typeCar" route="NS1" depart="322"/>
    <vehicle id="car_329" type="typeCar" route="NS2" depart="322"/>
    <vehicle id="car_330" type="typeCar" route="EW1" depart="325"/>
    <vehicle id="car_331" type="typeCar" route="EW2" depart="325"/>
    <vehicle id="car_332" type="typeCar" route="EW1" depart="326"/>
    <vehicle id="car_333" type="typeCar" route="EW2" depart="326"/>
    <vehicle id="car_334" type="typeCar" route="SN1" depart="327"/>
    <vehicle id="car_335" type="typeCar" route="SN2" depart="327"/>
    <vehicle id="car_336" type="typeCar" route="EW1" depart="330"/>
    <vehicle id="car_337" type="typeCar" route="EW2" depart="330"/>
    <vehicle id="car_338" type="typeCar" route="SN1" depart="335"/>
    <vehicle id="car_339" type="typeCar" route="SN2" depart="335"/>
    <vehicle id="car_340" type="typeCar" route="NS1" depart="340"/>
    <vehicle id="car_341" type="typeCar" route="NS2" depart="340"/>
    <vehicle id="car_342" type="typeCar" route="WE1" depart="341"/>
    <vehicle id="car_343" type="typeCar" route="WE2" depart="341"/>
    <vehicle id="car_344" type="typeCar" route="WE1" depart="345"/>
    <vehicle id="car_345" type="typeCar" route="WE2" depart="345"/>
    <vehicle id="car_346" type="typeCar" route="EW1" depart="345"/>
    <vehicle id="car_347" type="typeCar" route="EW2" depart="345"/>
    <vehicle id="car_348" type="typeCar" route="NS1" depart="350"/>
    <vehicle id="car_349" type="typeCar" route="NS2" depart="350"/>
    <vehicle id="car_350" type="typeCar" route="NS1" depart="353"/>
    <vehicle id="car_351" type="typeCar" route="NS2" depart="353"/>
    <vehicle id="car_352" type="typeCar" route="EW1" depart="353"/>
    <vehicle id="car_353" type="typeCar" route="EW2" depart="353"/>
    <vehicle id="car_354" type="typeCar" route="NS1" depart="355"/>
    <vehicle id="car_355" type="typeCar" route="NS2" depart="355"/>
    <vehicle id="car_356" type="typeCar" route="WE1" depart="355"/>
    <vehicle id="car_357" type="typeCar" route="WE2" depart="355"/>
    <vehicle id="car_358" type="typeCar" route="EW1" depart="357"/>
    <vehicle id="car_359" type="typeCar" route="EW2" depart="357"/>
    <vehicle id="car_360" type="typeCar" route="NS1" depart="361"/>
    <vehicle id="car_361" type="typeCar" route="NS2" depart="361"/>
    <vehicle id="car_362" type="typeCar" route="SN1" depart="361"/>
    <vehicle id="car_363" type="typeCar" route="SN2" depart="361"/>
    <vehicle id="car_364" type="typeCar" route="NS1" depart="363"/>
    <vehicle id="car_365" type="typeCar" route="NS2" depart="363"/>
    <vehicle id="car_366" type="typeCar" route="SN1" depart="363"/>
    <vehicle id="car_367" type="typeCar" route="SN2" depart="363"/>
    <vehicle id="car_368" type="typeCar" route="EW1" depart="368"/>
    <vehicle id="car_369" type="typeCar" route="EW2" depart="368"/>
    <vehicle id="car_370" type="typeCar" route="SN1" depart="369"/>
    <vehicle id="car_371" type="typeCar" route="SN2" depart="369"/>
    <vehicle id="car_372" type="typeCar" route="WE1" depart="372"/>
    <vehicle id="car_373" type="typeCar" route="WE2" depart="372"/>
    <vehicle id="car_374" type="typeCar" route="EW1" depart="372"/>
    <vehicle id="car_375" type="typeCar" route="EW2" depart="372"/>
    <vehicle id="car_376" type="typeCar" route="EW1" depart="375"/>
    <vehicle id="car_377" type="typeCar" route="EW2" depart="375"/>
    <vehicle id="car_378" type="typeCar" route="NS1" depart="378"/>
    <vehicle id="car_379" type="typeCar" route="NS2" depart="378"/>
    <vehicle id="car_380" type="typeCar" route="WE1" depart="378"/>
    <vehicle id="car_381" type="typeCar" route="WE2" depart="378"/>
    <vehicle id="car_382" type="typeCar" route="EW1" depart="380"/>
    <vehicle id="car_383" type="typeCar" route="EW2" depart="380"/>
    <vehicle id="car_384" type="typeCar" route="NS1" depart="382"/>
    <vehicle id="car_385" type="typeCar" route="NS2" depart="382"/>
    <vehicle id="car_386" type="typeCar" route="EW1" depart="382"/>
    <vehicle id="car_387" type="typeCar" route="EW2" depart="382"/>
    <vehicle id="car_388" type="typeCar" route="EW1" depart="385"/>
    <vehicle id="car_389" type="typeCar" route="EW2" depart="385"/>
    <vehicle id="car_390" type="typeCar" route="WE1" depart="388"/>
    <vehicle id="car_391" type="typeCar" route="WE2" depart="388"/>
    <vehicle id="car_392" type="typeCar" route="EW1" depart="396"/>
    <vehicle id="car_393" type="typeCar" route="EW2" depart="396"/>
    <vehicle id="car_394" type="typeCar" route="WE1" depart="397"/>
    <vehicle id="car_395" type="typeCar" route="WE2" depart="397"/>
    <vehicle id="car_396" type="typeCar" route="WE1" depart="399"/>
    <vehicle id="car_397" type="typeCar" route="WE2" depart="399"/>
    <vehicle id="car_398" type="typeCar" route="WE1" depart="400"/>
    <vehicle id="car_399" type="typeCar" route="WE2" depart="400"/>
    <vehicle id="car_400" type="typeCar" route="EW1" depart="402"/>
    <vehicle id="car_401" type="typeCar" route="EW2" depart="402"/>
    <vehicle id="car_402" type="typeCar" route="WE1" depart="403"/>
    <vehicle id="car_403" type="typeCar" route="WE2" depart="403"/>
    <vehicle id="car_404" type="typeCar" route="SN1" depart="406"/>
    <vehicle id="car_405" type="typeCar" route="SN2" depart="406"/>
    <vehicle id="car_406" type="typeCar" route="EW1" depart="408"/>
    <vehicle id="car_407" type="typeCar" route="EW2" depart="408"/>
    <vehicle id="car_408" type="typeCar" route="NS1" depart="409"/>
    <vehicle id="car_409" type="typeCar" route="NS2" depart="409"/>
    <vehicle id="car_410" type="typeCar" route="EW1" depart="409"/>
    <vehicle id="car_411" type="typeCar" route="EW2" depart="409"/>
    <vehicle id="car_412" type="typeCar" route="NS1" depart="412"/>
    <vehicle id="car_413" type="typeCar" route="NS2" depart="412"/>
    <vehicle id="car_414" type="typeCar" route="SN1" depart="418"/>
    <vehicle id="car_415" type="typeCar" route="SN2" depart="418"/>
    <vehicle id="car_416" type="typeCar" route="NS1" depart="419"/>
    <vehicle id="car_417" type="typeCar" route="NS2" depart="419"/>
    <vehicle id="car_418" type="typeCar" route="EW1" depart="423"/>
    <vehicle id="car_419" type="typeCar" route="EW2" depart="423"/>
    <vehicle id="car_420" type="typeCar" route="WE1" depart="424"/>
    <vehicle id="car_421" type="typeCar" route="WE2" depart="424"/>
    <vehicle id="car_422" type="typeCar" route="EW1" depart="426"/>
    <vehicle id="car_423" type="typeCar" route="EW2" depart="426"/>
    <vehicle id="car_424" type="typeCar" route="EW1" depart="427"/>
    <vehicle id="car_425" type="typeCar" route="EW2" depart="427"/>
    <vehicle id="car_426" type="typeCar" route="WE1" depart="431"/>
    <vehicle id="car_427" type="typeCar" route="WE2" depart="431"/>
    <vehicle id="car_428" type="typeCar" route="NS1" depart="435"/>
    <vehicle id="car_429" type="typeCar" route="NS2" depart="435"/>
    <vehicle id="car_430" type="typeCar" route="EW1" depart="436"/>
    <vehicle id="car_431" type="typeCar" route="EW2" depart="436"/>
    <vehicle id="car_432" type="typeCar" route="NS1" depart="438"/>
    <vehicle id="car_433" type="typeCar" route="NS2" depart="438"/>
    <vehicle id="car_434" type="typeCar" route="SN1" depart="438"/>
    <vehicle id="car_435" type="typeCar" route="SN2" depart="438"/>