<routes>
        <vType id="typeCar" accel="0.8" decel="4.5" sigma="0.5" length="5" minGap="2.5" maxSpeed="16.67" guiShape="passenger"/>

        <route id="NS1" edges="n12A A2s1" />
        <route id="SN1" edges="s12A A2n1" />
        <route id="NS2" edges="n22B B2s2" />
        <route id="SN2" edges="s22B B2n2" />
        <route id="WE" edges="w2A A2B B2e" />
        <route id="EW" edges="e2B B2A A2w" />
    <vehicle id="car_0" type="typeCar" route="NS2" depart="0"/>
    <vehicle id="car_1" type="typeCar" route="SN2" depart="2"/>
    <vehicle id="car_2" type="typeCar" route="NS2" depart="3"/>
    <vehicle id="car_3" type="typeCar" route="SN1" depart="3"/>
    <vehicle id="car_4" type="typeCar" route="SN2" depart="4"/>
    <vehicle id="car_5" type="typeCar" route="NS2" depart="6"/>
    <vehicle id="car_6" type="typeCar" route="SN2" depart="6"/>
    <vehicle id="car_7" type="typeCar" route="WE" depart="6"/>
    <vehicle id="car_8" type="typeCar" route="NS2" depart="7"/>
    <vehicle id="car_9" type="typeCar" route="NS1" depart="7"/>
    <vehicle id="car_10" type="typeCar" route="SN2" depart="8"/>
    <vehicle id="car_11" type="typeCar" route="NS2" depart="11"/>
    <vehicle id="car_12" type="typeCar" route="SN2" depart="19"/>
    <vehicle id="car_13" type="typeCar" route="SN2" depart="21"/>
    <vehicle id="car_14" type="typeCar" route="SN2" depart="22"/>
    <vehicle id="car_15" type="typeCar" route="SN2" depart="23"/>
    <vehicle id="car_16" type="typeCar" route="WE" depart="23"/>
    <vehicle id="car_17" type="typeCar" route="NS2" depart="39"/>
    <vehicle id="car_18" type="typeCar" route="SN2" depart="48"/>
    <vehicle id="car_19" type="typeCar" route="SN2" depart="50"/>
    <vehicle id="car_20" type="typeCar" route="SN2" depart="59"/>
    <vehicle id="car_21" type="typeCar" route="NS2" depart="61"/>
    <vehicle id="car_22" type="typeCar" route="NS1" depart="61"/>
    <vehicle id="car_23" type="typeCar" route="SN2" depart="63"/>
    <vehicle id="car_24" type="typeCar" route="SN2" depart="70"/>
    <vehicle id="car_25" type="typeCar" route="SN2" depart="71"/>
    <vehicle id="car_26" type="typeCar" route="WE" depart="71"/>
    <vehicle id="car_27" type="typeCar" route="NS2" depart="73"/>
    <vehicle id="car_28" type="typeCar" route="SN1" depart="73"/>
    <vehicle id="car_29" type="typeCar" route="SN2" depart="74"/>
    <vehicle id="car_30" type="typeCar" route="NS2" depart="75"/>
    <vehicle id="car_31" type="typeCar" route="SN2" depart="75"/>
    <vehicle id="car_32" type="typeCar" route="NS2" depart="76"/>
    <vehicle id="car_33" type="typeCar" route="NS2" depart="84"/>
    <vehicle id="car_34" type="typeCar" route="SN2" depart="87"/>
    <vehicle id="car_35" type="typeCar" route="SN2" depart="89"/>
    <vehicle id="car_36" type="typeCar" route="SN2" depart="95"/>
    <vehicle id="car_37" type="typeCar" route="NS2" depart="97"/>
    <vehicle id="car_38" type="typeCar" route="NS2" depart="100"/>
    <vehicle id="car_39" type="typeCar" route="NS1" depart="100"/>
    <vehicle id="car_40" type="typeCar" route="SN2" depart="100"/>
    <vehicle id="car_41" type="typeCar" route="SN2" depart="101"/>
    <vehicle id="car_42" type="typeCar" route="SN2" depart="105"/>
    <vehicle id="car_43" type="typeCar" route="WE" depart="105"/>
    <vehicle id="car_44" type="typeCar" route="EW" depart="105"/>
    <vehicle id="car_45" type="typeCar" route="NS2" depart="109"/>
    <vehicle id="car_46" type="typeCar" route="SN2" depart="111"/>
    <vehicle id="car_47" type="typeCar" route="SN2" depart="115"/>
    <vehicle id="car_48" type="typeCar" route="EW" depart="115"/>
    <vehicle id="car_49" type="typeCar" route="NS2" depart="120"/>
    <vehicle id="car_50" type="typeCar" route="SN2" depart="123"/>
    <vehicle id="car_51" type="typeCar" route="SN2" depart="126"/>
    <vehicle id="car_52" type="typeCar" route="NS2" depart="129"/>
    <vehicle id="car_53" type="typeCar" route="NS2" depart="130"/>
    <vehicle id="car_54" type="typeCar" route="SN1" depart="130"/>
    <vehicle id="car_55" type="typeCar" route="SN2" depart="131"/>
    <vehicle id="car_56" type="typeCar" route="SN2" depart="145"/>
    <vehicle id="car_57" type="typeCar" route="SN2" depart="146"/>
    <vehicle id="car_58" type="typeCar" route="SN2" depart="147"/>
    <vehicle id="car_59" type="typeCar" route="NS2" depart="149"/>
    <vehicle id="car_60" type="typeCar" route="SN1" depart="149"/>
    <vehicle id="car_61" type="typeCar" route="SN2" depart="151"/>
    <vehicle id="car_62" type="typeCar" route="NS2" depart="155"/>
    <vehicle id="car_63" type="typeCar" route="SN2" depart="160"/>
    <vehicle id="car_64" type="typeCar" route="EW" depart="160"/>
    <vehicle id="car_65" type="typeCar" route="SN2" depart="177"/>
    <vehicle id="car_66" type="typeCar" route="EW" depart="177"/>
    <vehicle id="car_67" type="typeCar" route="NS2" depart="178"/>
    <vehicle id="car_68" type="typeCar" route="NS1" depart="178"/>
    <vehicle id="car_69" type="typeCar" route="NS2" depart="183"/>
    <vehicle id="car_70" type="typeCar" route="SN1" depart="183"/>
    <vehicle id="car_71" type="typeCar" route="SN2" depart="193"/>
    <vehicle id="car_72" type="typeCar" route="EW" depart="193"/>
    <vehicle id="car_73" type="typeCar" route="SN2" depart="194"/>
    <vehicle id="car_74" type="typeCar" route="SN2" depart="198"/>
    <vehicle id="car_75" type="typeCar" route="WE" depart="198"/>
    <vehicle id="car_76" type="typeCar" route="SN2" depart="219"/>
    <vehicle id="car_77" type="typeCar" route="NS2" depart="223"/>
    <vehicle id="car_78" type="typeCar" route="SN2" depart="223"/>
    <vehicle id="car_79" type="typeCar" route="SN2" depart="226"/>
    <vehicle id="car_80" type="typeCar" route="SN2" depart="228"/>
    <vehicle id="car_81" type="typeCar" route="NS2" depart="229"/>
    <vehicle id="car_82" type="typeCar" route="SN1" depart="229"/>
    <vehicle id="car_83" type="typeCar" route="SN2" depart="234"/>
    <vehicle id="car_84" type="typeCar" route="EW" depart="234"/>
    <vehicle id="car_85" type="typeCar" route="NS2" depart="235"/>
    <vehicle id="car_86" type="typeCar" route="NS1" depart="235"/>
    <vehicle id="car_87" type="typeCar" route="NS2" depart="241"/>
    <vehicle id="car_88" type="typeCar" route="NS2" depart="244"/>
    <vehicle id="car_89" type="typeCar" route="SN2" depart="255"/>
    <vehicle id="car_90" type="typeCar" route="SN2" depart="260"/>
    <vehicle id="car_91" type="typeCar" route="WE" depart="260"/>
    <vehicle id="car_92" type="typeCar" route="SN2" depart="261"/>
    <vehicle id="car_93" type="typeCar" route="WE" depart="261"/>
    <vehicle id="car_94" type="typeCar" route="NS2" depart="264"/>
    <vehicle id="car_95" type="typeCar" route="NS2" depart="265"/>
    <vehicle id="car_96" type="typeCar" route="NS2" depart="270"/>
    <vehicle id="car_97" type="typeCar" route="SN2" depart="270"/>
    <vehicle id="car_98" type="typeCar" route="NS2" depart="275"/>
    <vehicle id="car_99" type="typeCar" route="SN2" depart="276"/>
    <vehicle id="car_100" type="typeCar" route="EW" depart="276"/>
    <vehicle id="car_101" type="typeCar" route="NS2" depart="278"/>
    <vehicle id="car_102" type="typeCar" route="NS2" depart="279"/>
    <vehicle id="car_103" type="typeCar" route="NS1" depart="279"/>
    <vehicle id="car_104" type="typeCar" route="NS2" depart="292"/>
    <vehicle id="car_105" type="typeCar" route="SN1" depart="292"/>
    <vehicle id="car_106" type="typeCar" route="NS2" depart="298"/>
    <vehicle id="car_107" type="typeCar" route="SN1" depart="298"/>
    <vehicle id="car_108" type="typeCar" route="SN2" depart="301"/>
    <vehicle id="car_109" type="typeCar" route="SN2" depart="304"/>
    <vehicle id="car_110" type="typeCar" route="NS2" depart="305"/>
    <vehicle id="car_111" type="typeCar" route="SN2" depart="306"/>
    <vehicle id="car_112" type="typeCar" route="NS2" depart="309"/>
    <vehicle id="car_113" type="typeCar" route="SN2" depart="312"/>
    <vehicle id="car_114" type="typeCar" route="SN2" depart="319"/>
    <vehicle id="car_115" type="typeCar" route="WE" depart="319"/>
    <vehicle id="car_116" type="typeCar" route="EW" depart="319"/>
    <vehicle id="car_117" type="typeCar" route="NS2" depart="323"/>
    <vehicle id="car_118" type="typeCar" route="SN2" depart="324"/>
    <vehicle id="car_119" type="typeCar" route="WE" depart="324"/>
    <vehicle id="car_120" type="typeCar" route="EW" depart="324"/>
    <vehicle id="car_121" type="typeCar" route="NS2" depart="326"/>
    <vehicle id="car_122" type="typeCar" route="SN2" depart="326"/>
    <vehicle id="car_123" type="typeCar" route="SN2" depart="331"/>
    <vehicle id="car_124" type="typeCar" route="SN2" depart="335"/>
    <vehicle id="car_125" type="typeCar" route="EW" depart="335"/>
    <vehicle id="car_126" type="typeCar" route="SN2" depart="338"/>
    <vehicle id="car_127" type="typeCar" route="EW" depart="338"/>
    <vehicle id="car_128" type="typeCar" route="NS2" depart="339"/>
    <vehicle id="car_129" type="typeCar" route="NS2" depart="340"/>
    <vehicle id="car_130" type="typeCar" route="SN1" depart="340"/>
    <vehicle id="car_131" type="typeCar" route="SN2" depart="342"/>
    <vehicle id="car_132" type="typeCar" route="NS2" depart="344"/>
    <vehicle id="car_133" type="typeCar" route="NS2" depart="347"/>
    <vehicle id="car_134" type="typeCar" route="SN2" depart="349"/>
    <vehicle id="car_135" type="typeCar" route="SN2" depart="350"/>
    <vehicle id="car_136" type="typeCar" route="NS2" depart="352"/>
    <vehicle id="car_137" type="typeCar" route="NS1" depart="352"/>
    <vehicle id="car_138" type="typeCar" route="NS2" depart="356"/>
    <vehicle id="car_139" type="typeCar" route="SN2" depart="358"/>
    <vehicle id="car_140" type="typeCar" route="NS2" depart="364"/>
    <vehicle id="car_141" type="typeCar" route="NS1" depart="364"/>
    <vehicle id="car_142" type="typeCar" route="SN1" depart="364"/>
    <vehicle id="car_143" type="typeCar" route="NS2" depart="372"/>
    <vehicle id="car_144" type="typeCar" route="SN2" depart="372"/>
    <vehicle id="car_145" type="typeCar" route="EW" depart="372"/>
    <vehicle id="car_146" type="typeCar" route="NS2" depart="375"/>
    <vehicle id="car_147" type="typeCar" route="NS1" depart="375"/>
    <vehicle id="car_148" type="typeCar" route="SN1" depart="375"/>
    <vehicle id="car_149" type="typeCar" route="SN2" depart="375"/>
    <vehicle id="car_150" type="typeCar" route="NS2" depart="377"/>
    <vehicle id="car_151" type="typeCar" route="SN1" depart="377"/>
    <vehicle id="car_152" type="typeCar" route="SN2" depart="378"/>
    <vehicle id="car_153" type="typeCar" route="NS2" depart="379"/>
    <vehicle id="car_154" type="typeCar" route="NS1" depart="379"/>
    <vehicle id="car_155" type="typeCar" route="SN2" depart="381"/>
    <vehicle id="car_156" type="typeCar" route="EW" depart="381"/>
    <vehicle id="car_157" type="typeCar" route="SN2" depart="384"/>
    <vehicle id="car_158" type="typeCar" route="NS2" depart="386"/>
    <vehicle id="car_159" type="typeCar" route="SN2" depart="387"/>
    <vehicle id="car_160" type="typeCar" route="NS2" depart="388"/>
    <vehicle id="car_161" type="typeCar" route="SN2" depart="391"/>
    <vehicle id="car_162" type="typeCar" route="NS2" depart="392"/>
    <vehicle id="car_163" type="typeCar" route="SN2" depart="392"/>
    <vehicle id="car_164" type="typeCar" route="WE" depart="392"/>
    <vehicle id="car_165" type="typeCar" route="NS2" depart="397"/>
    <vehicle id="car_166" type="typeCar" route="NS2" depart="399"/>
    <vehicle id="car_167" type="typeCar" route="NS2" depart="400"/>
    <vehicle id="car_168" type="typeCar" route="NS1" depart="400"/>
    <vehicle id="car_169" type="typeCar" route="NS2" depart="401"/>
    <vehicle id="car_170" type="typeCar" route="SN2" depart="413"/>
    <vehicle id="car_171" type="typeCar" route="EW" depart="413"/>
    <vehicle id="car_172" type="typeCar" route="SN2" depart="417"/>
    <vehicle id="car_173" type="typeCar" route="NS2" depart="418"/>
    <vehicle id="car_174" type="typeCar" route="NS2" depart="421"/>
    <vehicle id="car_175" type="typeCar" route="SN2" depart="421"/>
    <vehicle id="car_176" type="typeCar" route="SN2" depart="422"/>
    <vehicle id="car_177" type="typeCar" route="NS2" depart="424"/>
    <vehicle id="car_178" type="typeCar" route="SN2" depart="425"/>
    <vehicle id="car_179" type="typeCar" route="NS2" depart="426"/>
    <vehicle id="car_180" type="typeCar" route="SN2" depart="426"/>
    <vehicle id="car_181" type="typeCar" route="SN2" depart="427"/>
    <vehicle id="car_182" type="typeCar" route="NS2" depart="431"/>
    <vehicle id="car_183" type="typeCar" route="NS1" depart="431"/>
    <vehicle id="car_184" type="typeCar" route="SN2" depart="432"/>
    <vehicle id="car_185" type="typeCar" route="NS2" depart="433"/>
    <vehicle id="car_186" type="typeCar" route="SN2" depart="434"/>
    <vehicle id="car_187" type="typeCar" route="NS2" depart="438"/>
    <vehicle id="car_188" type="typeCar" route="SN2" depart="442"/>
    <vehicle id="car_189" type="typeCar" route="NS2" depart="444"/>
    <vehicle id="car_190" type="typeCar" route="SN2" depart="449"/>
    <vehicle id="car_191" type="typeCar" route="SN2" depart="455"/>
    <vehicle id="car_192" type="typeCar" route="NS2" depart="457"/>
    <vehicle id="car_193" type="typeCar" route="SN2" depart="457"/>
    <vehicle id="car_194" type="typeCar" route="WE" depart="457"/>
    <vehicle id="car_195" type="typeCar" route="NS2" depart="459"/>
    <vehicle id="car_196" type="typeCar" route="NS2" depart="462"/>
    <vehicle id="car_197" type="typeCar" route="SN2" depart="463"/>
    <vehicle id="car_198" type="typeCar" route="NS2" depart="472"/>
    <vehicle id="car_199" type="typeCar" route="SN2" depart="474"/>
    <vehicle id="car_200" type="typeCar" route="NS2" depart="488"/>
    <vehicle id="car_201" type="typeCar" route="SN2" depart="495"/>
</routes>
