<?xml version="1.0" encoding="UTF-8"?>
<nodes xmlns:xsi="http://www.w3.org/2001/XMLSchema-instance" xsi:noNamespaceSchemaLocation="http://sumo.dlr.de/xsd/nodes_file.xsd">
   <node id="n1" x="+200.0" y="0.0"/>
   <node id="m" x="+300.0" y="-200.0"/>
   <node id="s1" x="+200.0" y="-400.0"/>
   <node id="w" x="0" y="-200.0"/>
   <node id="n2" x="+400.0" y="0.0"/>
   <node id="s2" x="+400.0" y="-400.0"/>  
   <node id="e" x="+600.0" y="-200.0"/>

   <node id="A" x="+200.0" y="-200.0" type="traffic_light"/>
   <node id="B" x="+400.0" y="-200.0" type="traffic_light"/>

</nodes>
