<?xml version="1.0" encoding="UTF-8"?>

<!-- generated on Tue Oct  9 10:55:34 2018 by Eclipse SUMO netconvert Version 1.0.0
<configuration xmlns:xsi="http://www.w3.org/2001/XMLSchema-instance" xsi:noNamespaceSchemaLocation="http://sumo.dlr.de/xsd/netconvertConfiguration.xsd">

    <input>
        <node-files value="cross.nod.xml"/>
        <edge-files value="cross.edg.xml"/>
    </input>

    <output>
        <output-file value="cross.net.xml"/>
    </output>

</configuration>
-->

<net version="1.0" junctionCornerDetail="5" limitTurnSpeed="5.50" xmlns:xsi="http://www.w3.org/2001/XMLSchema-instance" xsi:noNamespaceSchemaLocation="http://sumo.dlr.de/xsd/net_file.xsd">

    <location netOffset="0.00,400.00" convBoundary="0.00,0.00,600.00,400.00" origBoundary="0.00,-400.00,600.00,0.00" projParameter="!"/>

    <edge id=":A_0" function="internal">
        <lane id=":A_0_0" index="0" speed="6.51" length="9.03" shape="195.20,210.40 194.85,207.95 193.80,206.20 192.05,205.15 189.60,204.80"/>
    </edge>
    <edge id=":A_1" function="internal">
        <lane id=":A_1_0" index="0" speed="13.89" length="20.80" shape="195.20,210.40 195.20,189.60"/>
        <lane id=":A_1_1" index="1" speed="13.89" length="20.80" shape="198.40,210.40 198.40,189.60"/>
    </edge>
    <edge id=":A_3" function="internal">
        <lane id=":A_3_0" index="0" speed="9.26" length="6.96" shape="198.40,210.40 199.15,205.15 200.00,203.73"/>
    </edge>
    <edge id=":A_4" function="internal">
        <lane id=":A_4_0" index="0" speed="3.65" length="2.34" shape="198.40,210.40 199.20,209.20 200.00,208.80"/>
    </edge>
    <edge id=":A_20" function="internal">
        <lane id=":A_20_0" index="0" speed="9.26" length="12.40" shape="200.00,203.73 201.40,201.40 205.15,199.15 210.40,198.40"/>
    </edge>
    <edge id=":A_21" function="internal">
        <lane id=":A_21_0" index="0" speed="3.65" length="2.34" shape="200.00,208.80 200.80,209.20 201.60,210.40"/>
    </edge>
    <edge id=":A_5" function="internal">
        <lane id=":A_5_0" index="0" speed="6.51" length="9.03" shape="210.40,204.80 207.95,205.15 206.20,206.20 205.15,207.95 204.80,210.40"/>
    </edge>
    <edge id=":A_6" function="internal">
        <lane id=":A_6_0" index="0" speed="13.89" length="20.80" shape="210.40,204.80 189.60,204.80"/>
        <lane id=":A_6_1" index="1" speed="13.89" length="20.80" shape="210.40,201.60 189.60,201.60"/>
    </edge>
    <edge id=":A_8" function="internal">
        <lane id=":A_8_0" index="0" speed="9.26" length="6.96" shape="210.40,201.60 205.15,200.85 203.73,200.00"/>
    </edge>
    <edge id=":A_9" function="internal">
        <lane id=":A_9_0" index="0" speed="3.65" length="2.34" shape="210.40,201.60 209.20,200.80 208.80,200.00"/>
    </edge>
    <edge id=":A_22" function="internal">
        <lane id=":A_22_0" index="0" speed="9.26" length="12.40" shape="203.73,200.00 201.40,198.60 199.15,194.85 198.40,189.60"/>
    </edge>
    <edge id=":A_23" function="internal">
        <lane id=":A_23_0" index="0" speed="3.65" length="2.34" shape="208.80,200.00 209.20,199.20 210.40,198.40"/>
    </edge>
    <edge id=":A_10" function="internal">
        <lane id=":A_10_0" index="0" speed="6.51" length="9.03" shape="204.80,189.60 205.15,192.05 206.20,193.80 207.95,194.85 210.40,195.20"/>
    </edge>
    <edge id=":A_11" function="internal">
        <lane id=":A_11_0" index="0" speed="13.89" length="20.80" shape="204.80,189.60 204.80,210.40"/>
        <lane id=":A_11_1" index="1" speed="13.89" length="20.80" shape="201.60,189.60 201.60,210.40"/>
    </edge>
    <edge id=":A_13" function="internal">
        <lane id=":A_13_0" index="0" speed="9.26" length="6.96" shape="201.60,189.60 200.85,194.85 200.00,196.27"/>
    </edge>
    <edge id=":A_14" function="internal">
        <lane id=":A_14_0" index="0" speed="3.65" length="2.34" shape="201.60,189.60 200.80,190.80 200.00,191.20"/>
    </edge>
    <edge id=":A_24" function="internal">
        <lane id=":A_24_0" index="0" speed="9.26" length="12.40" shape="200.00,196.27 198.60,198.60 194.85,200.85 189.60,201.60"/>
    </edge>
    <edge id=":A_25" function="internal">
        <lane id=":A_25_0" index="0" speed="3.65" length="2.34" shape="200.00,191.20 199.20,190.80 198.40,189.60"/>
    </edge>
    <edge id=":A_15" function="internal">
        <lane id=":A_15_0" index="0" speed="6.51" length="9.03" shape="189.60,195.20 192.05,194.85 193.80,193.80 194.85,192.05 195.20,189.60"/>
    </edge>
    <edge id=":A_16" function="internal">
        <lane id=":A_16_0" index="0" speed="13.89" length="20.80" shape="189.60,195.20 210.40,195.20"/>
        <lane id=":A_16_1" index="1" speed="13.89" length="20.80" shape="189.60,198.40 210.40,198.40"/>
    </edge>
    <edge id=":A_18" function="internal">
        <lane id=":A_18_0" index="0" speed="9.26" length="6.96" shape="189.60,198.40 194.85,199.15 196.27,200.00"/>
    </edge>
    <edge id=":A_19" function="internal">
        <lane id=":A_19_0" index="0" speed="3.65" length="2.34" shape="189.60,198.40 190.80,199.20 191.20,200.00"/>
    </edge>
    <edge id=":A_26" function="internal">
        <lane id=":A_26_0" index="0" speed="9.26" length="12.40" shape="196.27,200.00 198.60,201.40 200.85,205.15 201.60,210.40"/>
    </edge>
    <edge id=":A_27" function="internal">
        <lane id=":A_27_0" index="0" speed="3.65" length="2.34" shape="191.20,200.00 190.80,200.80 189.60,201.60"/>
    </edge>
    <edge id=":B_0" function="internal">
        <lane id=":B_0_0" index="0" speed="6.51" length="9.03" shape="395.20,210.40 394.85,207.95 393.80,206.20 392.05,205.15 389.60,204.80"/>
    </edge>
    <edge id=":B_1" function="internal">
        <lane id=":B_1_0" index="0" speed="13.89" length="20.80" shape="395.20,210.40 395.20,189.60"/>
        <lane id=":B_1_1" index="1" speed="13.89" length="20.80" shape="398.40,210.40 398.40,189.60"/>
    </edge>
    <edge id=":B_3" function="internal">
        <lane id=":B_3_0" index="0" speed="9.26" length="6.96" shape="398.40,210.40 399.15,205.15 400.00,203.73"/>
    </edge>
    <edge id=":B_4" function="internal">
        <lane id=":B_4_0" index="0" speed="3.65" length="2.34" shape="398.40,210.40 399.20,209.20 400.00,208.80"/>
    </edge>
    <edge id=":B_20" function="internal">
        <lane id=":B_20_0" index="0" speed="9.26" length="12.40" shape="400.00,203.73 401.40,201.40 405.15,199.15 410.40,198.40"/>
    </edge>
    <edge id=":B_21" function="internal">
        <lane id=":B_21_0" index="0" speed="3.65" length="2.34" shape="400.00,208.80 400.80,209.20 401.60,210.40"/>
    </edge>
    <edge id=":B_5" function="internal">
        <lane id=":B_5_0" index="0" speed="6.51" length="9.03" shape="410.40,204.80 407.95,205.15 406.20,206.20 405.15,207.95 404.80,210.40"/>
    </edge>
    <edge id=":B_6" function="internal">
        <lane id=":B_6_0" index="0" speed="13.89" length="20.80" shape="410.40,204.80 389.60,204.80"/>
        <lane id=":B_6_1" index="1" speed="13.89" length="20.80" shape="410.40,201.60 389.60,201.60"/>
    </edge>
    <edge id=":B_8" function="internal">
        <lane id=":B_8_0" index="0" speed="9.26" length="6.96" shape="410.40,201.60 405.15,200.85 403.73,200.00"/>
    </edge>
    <edge id=":B_9" function="internal">
        <lane id=":B_9_0" index="0" speed="3.65" length="2.34" shape="410.40,201.60 409.20,200.80 408.80,200.00"/>
    </edge>
    <edge id=":B_22" function="internal">
        <lane id=":B_22_0" index="0" speed="9.26" length="12.40" shape="403.73,200.00 401.40,198.60 399.15,194.85 398.40,189.60"/>
    </edge>
    <edge id=":B_23" function="internal">
        <lane id=":B_23_0" index="0" speed="3.65" length="2.34" shape="408.80,200.00 409.20,199.20 410.40,198.40"/>
    </edge>
    <edge id=":B_10" function="internal">
        <lane id=":B_10_0" index="0" speed="6.51" length="9.03" shape="404.80,189.60 405.15,192.05 406.20,193.80 407.95,194.85 410.40,195.20"/>
    </edge>
    <edge id=":B_11" function="internal">
        <lane id=":B_11_0" index="0" speed="13.89" length="20.80" shape="404.80,189.60 404.80,210.40"/>
        <lane id=":B_11_1" index="1" speed="13.89" length="20.80" shape="401.60,189.60 401.60,210.40"/>
    </edge>
    <edge id=":B_13" function="internal">
        <lane id=":B_13_0" index="0" speed="9.26" length="6.96" shape="401.60,189.60 400.85,194.85 400.00,196.27"/>
    </edge>
    <edge id=":B_14" function="internal">
        <lane id=":B_14_0" index="0" speed="3.65" length="2.34" shape="401.60,189.60 400.80,190.80 400.00,191.20"/>
    </edge>
    <edge id=":B_24" function="internal">
        <lane id=":B_24_0" index="0" speed="9.26" length="12.40" shape="400.00,196.27 398.60,198.60 394.85,200.85 389.60,201.60"/>
    </edge>
    <edge id=":B_25" function="internal">
        <lane id=":B_25_0" index="0" speed="3.65" length="2.34" shape="400.00,191.20 399.20,190.80 398.40,189.60"/>
    </edge>
    <edge id=":B_15" function="internal">
        <lane id=":B_15_0" index="0" speed="6.51" length="9.03" shape="389.60,195.20 392.05,194.85 393.80,193.80 394.85,192.05 395.20,189.60"/>
    </edge>
    <edge id=":B_16" function="internal">
        <lane id=":B_16_0" index="0" speed="13.89" length="20.80" shape="389.60,195.20 410.40,195.20"/>
        <lane id=":B_16_1" index="1" speed="13.89" length="20.80" shape="389.60,198.40 410.40,198.40"/>
    </edge>
    <edge id=":B_18" function="internal">
        <lane id=":B_18_0" index="0" speed="9.26" length="6.96" shape="389.60,198.40 394.85,199.15 396.27,200.00"/>
    </edge>
    <edge id=":B_19" function="internal">
        <lane id=":B_19_0" index="0" speed="3.65" length="2.34" shape="389.60,198.40 390.80,199.20 391.20,200.00"/>
    </edge>
    <edge id=":B_26" function="internal">
        <lane id=":B_26_0" index="0" speed="9.26" length="12.40" shape="396.27,200.00 398.60,201.40 400.85,205.15 401.60,210.40"/>
    </edge>
    <edge id=":B_27" function="internal">
        <lane id=":B_27_0" index="0" speed="3.65" length="2.34" shape="391.20,200.00 390.80,200.80 389.60,201.60"/>
    </edge>
    <edge id=":e_0" function="internal">
        <lane id=":e_0_0" index="0" speed="3.65" length="4.67" shape="600.00,198.40 601.20,199.20 601.60,200.00 601.20,200.80 600.00,201.60"/>
    </edge>
    <edge id=":n1_0" function="internal">
        <lane id=":n1_0_0" index="0" speed="3.65" length="4.67" shape="201.60,400.00 200.80,401.20 200.00,401.60 199.20,401.20 198.40,400.00"/>
    </edge>
    <edge id=":n2_0" function="internal">
        <lane id=":n2_0_0" index="0" speed="3.65" length="4.67" shape="401.60,400.00 400.80,401.20 400.00,401.60 399.20,401.20 398.40,400.00"/>
    </edge>
    <edge id=":s1_0" function="internal">
        <lane id=":s1_0_0" index="0" speed="3.65" length="4.67" shape="198.40,0.00 199.20,-1.20 200.00,-1.60 200.80,-1.20 201.60,0.00"/>
    </edge>
    <edge id=":s2_0" function="internal">
        <lane id=":s2_0_0" index="0" speed="3.65" length="4.67" shape="398.40,0.00 399.20,-1.20 400.00,-1.60 400.80,-1.20 401.60,0.00"/>
    </edge>
    <edge id=":w_0" function="internal">
        <lane id=":w_0_0" index="0" speed="3.65" length="4.67" shape="0.00,201.60 -1.20,200.80 -1.60,200.00 -1.20,199.20 0.00,198.40"/>
    </edge>

    <edge id="A2B" from="A" to="B" priority="-1">
        <lane id="A2B_0" index="0" speed="13.89" length="179.20" shape="210.40,195.20 389.60,195.20"/>
        <lane id="A2B_1" index="1" speed="13.89" length="179.20" shape="210.40,198.40 389.60,198.40"/>
    </edge>
    <edge id="A2n1" from="A" to="n1" priority="-1">
        <lane id="A2n1_0" index="0" speed="13.89" length="189.60" shape="204.80,210.40 204.80,400.00"/>
        <lane id="A2n1_1" index="1" speed="13.89" length="189.60" shape="201.60,210.40 201.60,400.00"/>
    </edge>
    <edge id="A2s1" from="A" to="s1" priority="-1">
        <lane id="A2s1_0" index="0" speed="13.89" length="189.60" shape="195.20,189.60 195.20,0.00"/>
        <lane id="A2s1_1" index="1" speed="13.89" length="189.60" shape="198.40,189.60 198.40,0.00"/>
    </edge>
    <edge id="A2w" from="A" to="w" priority="-1">
        <lane id="A2w_0" index="0" speed="13.89" length="189.60" shape="189.60,204.80 0.00,204.80"/>
        <lane id="A2w_1" index="1" speed="13.89" length="189.60" shape="189.60,201.60 0.00,201.60"/>
    </edge>
    <edge id="B2A" from="B" to="A" priority="-1">
        <lane id="B2A_0" index="0" speed="13.89" length="179.20" shape="389.60,204.80 210.40,204.80"/>
        <lane id="B2A_1" index="1" speed="13.89" length="179.20" shape="389.60,201.60 210.40,201.60"/>
    </edge>
    <edge id="B2e" from="B" to="e" priority="-1">
        <lane id="B2e_0" index="0" speed="13.89" length="189.60" shape="410.40,195.20 600.00,195.20"/>
        <lane id="B2e_1" index="1" speed="13.89" length="189.60" shape="410.40,198.40 600.00,198.40"/>
    </edge>
    <edge id="B2n2" from="B" to="n2" priority="-1">
        <lane id="B2n2_0" index="0" speed="13.89" length="189.60" shape="404.80,210.40 404.80,400.00"/>
        <lane id="B2n2_1" index="1" speed="13.89" length="189.60" shape="401.60,210.40 401.60,400.00"/>
    </edge>
    <edge id="B2s2" from="B" to="s2" priority="-1">
        <lane id="B2s2_0" index="0" speed="13.89" length="189.60" shape="395.20,189.60 395.20,0.00"/>
        <lane id="B2s2_1" index="1" speed="13.89" length="189.60" shape="398.40,189.60 398.40,0.00"/>
    </edge>
    <edge id="e2B" from="e" to="B" priority="-1">
        <lane id="e2B_0" index="0" speed="13.89" length="189.60" shape="600.00,204.80 410.40,204.80"/>
        <lane id="e2B_1" index="1" speed="13.89" length="189.60" shape="600.00,201.60 410.40,201.60"/>
    </edge>
    <edge id="n12A" from="n1" to="A" priority="-1">
        <lane id="n12A_0" index="0" speed="13.89" length="189.60" shape="195.20,400.00 195.20,210.40"/>
        <lane id="n12A_1" index="1" speed="13.89" length="189.60" shape="198.40,400.00 198.40,210.40"/>
    </edge>
    <edge id="n22B" from="n2" to="B" priority="-1">
        <lane id="n22B_0" index="0" speed="13.89" length="189.60" shape="395.20,400.00 395.20,210.40"/>
        <lane id="n22B_1" index="1" speed="13.89" length="189.60" shape="398.40,400.00 398.40,210.40"/>
    </edge>
    <edge id="s12A" from="s1" to="A" priority="-1">
        <lane id="s12A_0" index="0" speed="13.89" length="189.60" shape="204.80,0.00 204.80,189.60"/>
        <lane id="s12A_1" index="1" speed="13.89" length="189.60" shape="201.60,0.00 201.60,189.60"/>
    </edge>
    <edge id="s22B" from="s2" to="B" priority="-1">
        <lane id="s22B_0" index="0" speed="13.89" length="189.60" shape="404.80,0.00 404.80,189.60"/>
        <lane id="s22B_1" index="1" speed="13.89" length="189.60" shape="401.60,0.00 401.60,189.60"/>
    </edge>
    <edge id="w2A" from="w" to="A" priority="-1">
        <lane id="w2A_0" index="0" speed="13.89" length="189.60" shape="0.00,195.20 189.60,195.20"/>
        <lane id="w2A_1" index="1" speed="13.89" length="189.60" shape="0.00,198.40 189.60,198.40"/>
    </edge>

    <tlLogic id="A" type="static" programID="0" offset="0">
        <phase duration="42" state="GGGggrrrrrGGGggrrrrr"/>
        <phase duration="3"  state="yyyyyrrrrryyyyyrrrrr"/>
        <phase duration="42" state="rrrrrGGGggrrrrrGGGgg"/>
        <phase duration="3"  state="rrrrryyyyyrrrrryyyyy"/>
    </tlLogic>
    <tlLogic id="B" type="static" programID="0" offset="0">
        <phase duration="42" state="GGGggrrrrrGGGggrrrrr"/>
        <phase duration="3"  state="yyyyyrrrrryyyyyrrrrr"/>
        <phase duration="42" state="rrrrrGGGggrrrrrGGGgg"/>
        <phase duration="3"  state="rrrrryyyyyrrrrryyyyy"/>
    </tlLogic>

    <junction id="A" type="traffic_light" x="200.00" y="200.00" incLanes="n12A_0 n12A_1 B2A_0 B2A_1 s12A_0 s12A_1 w2A_0 w2A_1" intLanes=":A_0_0 :A_1_0 :A_1_1 :A_20_0 :A_21_0 :A_5_0 :A_6_0 :A_6_1 :A_22_0 :A_23_0 :A_10_0 :A_11_0 :A_11_1 :A_24_0 :A_25_0 :A_15_0 :A_16_0 :A_16_1 :A_26_0 :A_27_0" shape="193.60,210.40 206.40,210.40 206.84,208.18 207.40,207.40 208.18,206.84 209.18,206.51 210.40,206.40 210.40,193.60 208.18,193.16 207.40,192.60 206.84,191.82 206.51,190.82 206.40,189.60 193.60,189.60 193.16,191.82 192.60,192.60 191.82,193.16 190.82,193.49 189.60,193.60 189.60,206.40 191.82,206.84 192.60,207.40 193.16,208.18 193.49,209.18">
        <request index="0"  response="00000000000000000000" foes="10000010000011000000" cont="0"/>
        <request index="1"  response="01000000000100000000" foes="01111110000111000000" cont="0"/>
        <request index="2"  response="01000000000100000000" foes="01111110000111000000" cont="0"/>
        <request index="3"  response="01000001110100000000" foes="01110001111111000000" cont="1"/>
        <request index="4"  response="01000001100000100000" foes="01000001100000100000" cont="1"/>
        <request index="5"  response="00000001100000000000" foes="01000001100000010000" cont="0"/>
        <request index="6"  response="00000011100000001111" foes="11000011100000001111" cont="0"/>
        <request index="7"  response="00000011100000001111" foes="11000011100000001111" cont="0"/>
        <request index="8"  response="00111011100000001110" foes="00111111100000001110" cont="1"/>
        <request index="9"  response="00110000010000001000" foes="00110000010000001000" cont="1"/>
        <request index="10" response="00000000000000000000" foes="00110000001000001000" cont="0"/>
        <request index="11" response="01000000000100000000" foes="01110000000111111000" cont="0"/>
        <request index="12" response="01000000000100000000" foes="01110000000111111000" cont="0"/>
        <request index="13" response="01000000000100000111" foes="11110000000111000111" cont="1"/>
        <request index="14" response="00001000000100000110" foes="00001000000100000110" cont="1"/>
        <request index="15" response="00000000000000000110" foes="00000100000100000110" cont="0"/>
        <request index="16" response="00000011110000001110" foes="00000011111100001110" cont="0"/>
        <request index="17" response="00000011110000001110" foes="00000011111100001110" cont="0"/>
        <request index="18" response="00000011100011101110" foes="00000011100011111110" cont="1"/>
        <request index="19" response="00000010000011000001" foes="00000010000011000001" cont="1"/>
    </junction>
    <junction id="B" type="traffic_light" x="400.00" y="200.00" incLanes="n22B_0 n22B_1 e2B_0 e2B_1 s22B_0 s22B_1 A2B_0 A2B_1" intLanes=":B_0_0 :B_1_0 :B_1_1 :B_20_0 :B_21_0 :B_5_0 :B_6_0 :B_6_1 :B_22_0 :B_23_0 :B_10_0 :B_11_0 :B_11_1 :B_24_0 :B_25_0 :B_15_0 :B_16_0 :B_16_1 :B_26_0 :B_27_0" shape="393.60,210.40 406.40,210.40 406.84,208.18 407.40,207.40 408.18,206.84 409.18,206.51 410.40,206.40 410.40,193.60 408.18,193.16 407.40,192.60 406.84,191.82 406.51,190.82 406.40,189.60 393.60,189.60 393.16,191.82 392.60,192.60 391.82,193.16 390.82,193.49 389.60,193.60 389.60,206.40 391.82,206.84 392.60,207.40 393.16,208.18 393.49,209.18">
        <request index="0"  response="00000000000000000000" foes="10000010000011000000" cont="0"/>
        <request index="1"  response="01000000000100000000" foes="01111110000111000000" cont="0"/>
        <request index="2"  response="01000000000100000000" foes="01111110000111000000" cont="0"/>
        <request index="3"  response="01000001110100000000" foes="01110001111111000000" cont="1"/>
        <request index="4"  response="01000001100000100000" foes="01000001100000100000" cont="1"/>
        <request index="5"  response="00000001100000000000" foes="01000001100000010000" cont="0"/>
        <request index="6"  response="00000011100000001111" foes="11000011100000001111" cont="0"/>
        <request index="7"  response="00000011100000001111" foes="11000011100000001111" cont="0"/>
        <request index="8"  response="00111011100000001110" foes="00111111100000001110" cont="1"/>
        <request index="9"  response="00110000010000001000" foes="00110000010000001000" cont="1"/>
        <request index="10" response="00000000000000000000" foes="00110000001000001000" cont="0"/>
        <request index="11" response="01000000000100000000" foes="01110000000111111000" cont="0"/>
        <request index="12" response="01000000000100000000" foes="01110000000111111000" cont="0"/>
        <request index="13" response="01000000000100000111" foes="11110000000111000111" cont="1"/>
        <request index="14" response="00001000000100000110" foes="00001000000100000110" cont="1"/>
        <request index="15" response="00000000000000000110" foes="00000100000100000110" cont="0"/>
        <request index="16" response="00000011110000001110" foes="00000011111100001110" cont="0"/>
        <request index="17" response="00000011110000001110" foes="00000011111100001110" cont="0"/>
        <request index="18" response="00000011100011101110" foes="00000011100011111110" cont="1"/>
        <request index="19" response="00000010000011000001" foes="00000010000011000001" cont="1"/>
    </junction>
    <junction id="e" type="priority" x="600.00" y="200.00" incLanes="B2e_0 B2e_1" intLanes=":e_0_0" shape="600.00,200.00 600.00,193.60 600.00,200.00">
        <request index="0" response="0" foes="0" cont="0"/>
    </junction>
    <junction id="n1" type="priority" x="200.00" y="400.00" incLanes="A2n1_0 A2n1_1" intLanes=":n1_0_0" shape="200.00,400.00 206.40,400.00 200.00,400.00">
        <request index="0" response="0" foes="0" cont="0"/>
    </junction>
    <junction id="n2" type="priority" x="400.00" y="400.00" incLanes="B2n2_0 B2n2_1" intLanes=":n2_0_0" shape="400.00,400.00 406.40,400.00 400.00,400.00">
        <request index="0" response="0" foes="0" cont="0"/>
    </junction>
    <junction id="s1" type="priority" x="200.00" y="0.00" incLanes="A2s1_0 A2s1_1" intLanes=":s1_0_0" shape="200.00,0.00 193.60,0.00 200.00,0.00">
        <request index="0" response="0" foes="0" cont="0"/>
    </junction>
    <junction id="s2" type="priority" x="400.00" y="0.00" incLanes="B2s2_0 B2s2_1" intLanes=":s2_0_0" shape="400.00,0.00 393.60,0.00 400.00,0.00">
        <request index="0" response="0" foes="0" cont="0"/>
    </junction>
    <junction id="w" type="priority" x="0.00" y="200.00" incLanes="A2w_0 A2w_1" intLanes=":w_0_0" shape="0.00,200.00 0.00,206.40 0.00,200.00">
        <request index="0" response="0" foes="0" cont="0"/>
    </junction>

    <junction id=":A_20_0" type="internal" x="200.00" y="203.73" incLanes=":A_3_0 s12A_0 s12A_1" intLanes=":A_6_0 :A_6_1 :A_8_0 :A_9_0 :A_10_0 :A_11_0 :A_11_1 :A_16_0 :A_16_1 :A_18_0"/>
    <junction id=":A_21_0" type="internal" x="200.00" y="208.80" incLanes=":A_4_0 B2A_0 s12A_0 s12A_1 w2A_1" intLanes=":A_5_0 :A_11_0 :A_11_1 :A_18_0"/>
    <junction id=":A_22_0" type="internal" x="203.73" y="200.00" incLanes=":A_8_0 w2A_0 w2A_1" intLanes=":A_1_0 :A_1_1 :A_3_0 :A_11_0 :A_11_1 :A_13_0 :A_14_0 :A_15_0 :A_16_0 :A_16_1"/>
    <junction id=":A_23_0" type="internal" x="208.80" y="200.00" incLanes=":A_9_0 n12A_1 s12A_0 w2A_0 w2A_1" intLanes=":A_3_0 :A_10_0 :A_16_0 :A_16_1"/>
    <junction id=":A_24_0" type="internal" x="200.00" y="196.27" incLanes=":A_13_0 n12A_0 n12A_1" intLanes=":A_0_0 :A_1_0 :A_1_1 :A_6_0 :A_6_1 :A_8_0 :A_16_0 :A_16_1 :A_18_0 :A_19_0"/>
    <junction id=":A_25_0" type="internal" x="200.00" y="191.20" incLanes=":A_14_0 B2A_1 n12A_0 n12A_1 w2A_0" intLanes=":A_1_0 :A_1_1 :A_8_0 :A_15_0"/>
    <junction id=":A_26_0" type="internal" x="196.27" y="200.00" incLanes=":A_18_0 B2A_0 B2A_1" intLanes=":A_1_0 :A_1_1 :A_3_0 :A_4_0 :A_5_0 :A_6_0 :A_6_1 :A_11_0 :A_11_1 :A_13_0"/>
    <junction id=":A_27_0" type="internal" x="191.20" y="200.00" incLanes=":A_19_0 B2A_0 B2A_1 n12A_0 s12A_1" intLanes=":A_0_0 :A_6_0 :A_6_1 :A_13_0"/>
    <junction id=":B_20_0" type="internal" x="400.00" y="203.73" incLanes=":B_3_0 s22B_0 s22B_1" intLanes=":B_6_0 :B_6_1 :B_8_0 :B_9_0 :B_10_0 :B_11_0 :B_11_1 :B_16_0 :B_16_1 :B_18_0"/>
    <junction id=":B_21_0" type="internal" x="400.00" y="208.80" incLanes=":B_4_0 A2B_1 e2B_0 s22B_0 s22B_1" intLanes=":B_5_0 :B_11_0 :B_11_1 :B_18_0"/>
    <junction id=":B_22_0" type="internal" x="403.73" y="200.00" incLanes=":B_8_0 A2B_0 A2B_1" intLanes=":B_1_0 :B_1_1 :B_3_0 :B_11_0 :B_11_1 :B_13_0 :B_14_0 :B_15_0 :B_16_0 :B_16_1"/>
    <junction id=":B_23_0" type="internal" x="408.80" y="200.00" incLanes=":B_9_0 A2B_0 A2B_1 n22B_1 s22B_0" intLanes=":B_3_0 :B_10_0 :B_16_0 :B_16_1"/>
    <junction id=":B_24_0" type="internal" x="400.00" y="196.27" incLanes=":B_13_0 n22B_0 n22B_1" intLanes=":B_0_0 :B_1_0 :B_1_1 :B_6_0 :B_6_1 :B_8_0 :B_16_0 :B_16_1 :B_18_0 :B_19_0"/>
    <junction id=":B_25_0" type="internal" x="400.00" y="191.20" incLanes=":B_14_0 A2B_0 e2B_1 n22B_0 n22B_1" intLanes=":B_1_0 :B_1_1 :B_8_0 :B_15_0"/>
    <junction id=":B_26_0" type="internal" x="396.27" y="200.00" incLanes=":B_18_0 e2B_0 e2B_1" intLanes=":B_1_0 :B_1_1 :B_3_0 :B_4_0 :B_5_0 :B_6_0 :B_6_1 :B_11_0 :B_11_1 :B_13_0"/>
    <junction id=":B_27_0" type="internal" x="391.20" y="200.00" incLanes=":B_19_0 e2B_0 e2B_1 n22B_0 s22B_1" intLanes=":B_0_0 :B_6_0 :B_6_1 :B_13_0"/>

    <connection from="A2B" to="B2s2" fromLane="0" toLane="0" via=":B_15_0" tl="B" linkIndex="15" dir="r" state="o"/>
    <connection from="A2B" to="B2e" fromLane="0" toLane="0" via=":B_16_0" tl="B" linkIndex="16" dir="s" state="o"/>
    <connection from="A2B" to="B2e" fromLane="1" toLane="1" via=":B_16_1" tl="B" linkIndex="17" dir="s" state="o"/>
    <connection from="A2B" to="B2n2" fromLane="1" toLane="1" via=":B_18_0" tl="B" linkIndex="18" dir="l" state="o"/>
    <connection from="A2B" to="B2A" fromLane="1" toLane="1" via=":B_19_0" tl="B" linkIndex="19" dir="t" state="o"/>
    <connection from="A2n1" to="n12A" fromLane="1" toLane="1" via=":n1_0_0" dir="t" state="M"/>
    <connection from="A2s1" to="s12A" fromLane="1" toLane="1" via=":s1_0_0" dir="t" state="M"/>
    <connection from="A2w" to="w2A" fromLane="1" toLane="1" via=":w_0_0" dir="t" state="M"/>
    <connection from="B2A" to="A2n1" fromLane="0" toLane="0" via=":A_5_0" tl="A" linkIndex="5" dir="r" state="o"/>
    <connection from="B2A" to="A2w" fromLane="0" toLane="0" via=":A_6_0" tl="A" linkIndex="6" dir="s" state="o"/>
    <connection from="B2A" to="A2w" fromLane="1" toLane="1" via=":A_6_1" tl="A" linkIndex="7" dir="s" state="o"/>
    <connection from="B2A" to="A2s1" fromLane="1" toLane="1" via=":A_8_0" tl="A" linkIndex="8" dir="l" state="o"/>
    <connection from="B2A" to="A2B" fromLane="1" toLane="1" via=":A_9_0" tl="A" linkIndex="9" dir="t" state="o"/>
    <connection from="B2e" to="e2B" fromLane="1" toLane="1" via=":e_0_0" dir="t" state="M"/>
    <connection from="B2n2" to="n22B" fromLane="1" toLane="1" via=":n2_0_0" dir="t" state="M"/>
    <connection from="B2s2" to="s22B" fromLane="1" toLane="1" via=":s2_0_0" dir="t" state="M"/>
    <connection from="e2B" to="B2n2" fromLane="0" toLane="0" via=":B_5_0" tl="B" linkIndex="5" dir="r" state="o"/>
    <connection from="e2B" to="B2A" fromLane="0" toLane="0" via=":B_6_0" tl="B" linkIndex="6" dir="s" state="o"/>
    <connection from="e2B" to="B2A" fromLane="1" toLane="1" via=":B_6_1" tl="B" linkIndex="7" dir="s" state="o"/>
    <connection from="e2B" to="B2s2" fromLane="1" toLane="1" via=":B_8_0" tl="B" linkIndex="8" dir="l" state="o"/>
    <connection from="e2B" to="B2e" fromLane="1" toLane="1" via=":B_9_0" tl="B" linkIndex="9" dir="t" state="o"/>
    <connection from="n12A" to="A2w" fromLane="0" toLane="0" via=":A_0_0" tl="A" linkIndex="0" dir="r" state="O"/>
    <connection from="n12A" to="A2s1" fromLane="0" toLane="0" via=":A_1_0" tl="A" linkIndex="1" dir="s" state="O"/>
    <connection from="n12A" to="A2s1" fromLane="1" toLane="1" via=":A_1_1" tl="A" linkIndex="2" dir="s" state="O"/>
    <connection from="n12A" to="A2B" fromLane="1" toLane="1" via=":A_3_0" tl="A" linkIndex="3" dir="l" state="o"/>
    <connection from="n12A" to="A2n1" fromLane="1" toLane="1" via=":A_4_0" tl="A" linkIndex="4" dir="t" state="o"/>
    <connection from="n22B" to="B2A" fromLane="0" toLane="0" via=":B_0_0" tl="B" linkIndex="0" dir="r" state="O"/>
    <connection from="n22B" to="B2s2" fromLane="0" toLane="0" via=":B_1_0" tl="B" linkIndex="1" dir="s" state="O"/>
    <connection from="n22B" to="B2s2" fromLane="1" toLane="1" via=":B_1_1" tl="B" linkIndex="2" dir="s" state="O"/>
    <connection from="n22B" to="B2e" fromLane="1" toLane="1" via=":B_3_0" tl="B" linkIndex="3" dir="l" state="o"/>
    <connection from="n22B" to="B2n2" fromLane="1" toLane="1" via=":B_4_0" tl="B" linkIndex="4" dir="t" state="o"/>
    <connection from="s12A" to="A2B" fromLane="0" toLane="0" via=":A_10_0" tl="A" linkIndex="10" dir="r" state="O"/>
    <connection from="s12A" to="A2n1" fromLane="0" toLane="0" via=":A_11_0" tl="A" linkIndex="11" dir="s" state="O"/>
    <connection from="s12A" to="A2n1" fromLane="1" toLane="1" via=":A_11_1" tl="A" linkIndex="12" dir="s" state="O"/>
    <connection from="s12A" to="A2w" fromLane="1" toLane="1" via=":A_13_0" tl="A" linkIndex="13" dir="l" state="o"/>
    <connection from="s12A" to="A2s1" fromLane="1" toLane="1" via=":A_14_0" tl="A" linkIndex="14" dir="t" state="o"/>
    <connection from="s22B" to="B2e" fromLane="0" toLane="0" via=":B_10_0" tl="B" linkIndex="10" dir="r" state="O"/>
    <connection from="s22B" to="B2n2" fromLane="0" toLane="0" via=":B_11_0" tl="B" linkIndex="11" dir="s" state="O"/>
    <connection from="s22B" to="B2n2" fromLane="1" toLane="1" via=":B_11_1" tl="B" linkIndex="12" dir="s" state="O"/>
    <connection from="s22B" to="B2A" fromLane="1" toLane="1" via=":B_13_0" tl="B" linkIndex="13" dir="l" state="o"/>
    <connection from="s22B" to="B2s2" fromLane="1" toLane="1" via=":B_14_0" tl="B" linkIndex="14" dir="t" state="o"/>
    <connection from="w2A" to="A2s1" fromLane="0" toLane="0" via=":A_15_0" tl="A" linkIndex="15" dir="r" state="o"/>
    <connection from="w2A" to="A2B" fromLane="0" toLane="0" via=":A_16_0" tl="A" linkIndex="16" dir="s" state="o"/>
    <connection from="w2A" to="A2B" fromLane="1" toLane="1" via=":A_16_1" tl="A" linkIndex="17" dir="s" state="o"/>
    <connection from="w2A" to="A2n1" fromLane="1" toLane="1" via=":A_18_0" tl="A" linkIndex="18" dir="l" state="o"/>