<routes>
        <vType id="typeCar" accel="0.8" decel="4.5" sigma="0.5" length="5" minGap="2.5" maxSpeed="16.67" guiShape="passenger"/>

        <route id="NS1" edges="n12A A2s1" />
        <route id="SN1" edges="s12A A2n1" />
        <route id="NS2" edges="n22B B2s2" />
        <route id="SN2" edges="s22B B2n2" />
        <route id="WE" edges="w2A A2B B2e" />
        <route id="EW" edges="e2B B2A A2w" />
    <vehicle id="car_0" type="typeCar" route="SN2" depart="0"/>
    <vehicle id="car_1" type="typeCar" route="SN2" depart="1"/>
    <vehicle id="car_2" type="typeCar" route="NS2" depart="2"/>
    <vehicle id="car_3" type="typeCar" route="NS2" depart="7"/>
    <vehicle id="car_4" type="typeCar" route="NS2" depart="10"/>
    <vehicle id="car_5" type="typeCar" route="NS1" depart="10"/>
    <vehicle id="car_6" type="typeCar" route="SN2" depart="22"/>
    <vehicle id="car_7" type="typeCar" route="EW" depart="22"/>
    <vehicle id="car_8" type="typeCar" route="SN2" depart="24"/>
    <vehicle id="car_9" type="typeCar" route="SN2" depart="26"/>
    <vehicle id="car_10" type="typeCar" route="NS2" depart="35"/>
    <vehicle id="car_11" type="typeCar" route="SN2" depart="43"/>
    <vehicle id="car_12" type="typeCar" route="EW" depart="43"/>
    <vehicle id="car_13" type="typeCar" route="SN2" depart="44"/>
    <vehicle id="car_14" type="typeCar" route="NS2" depart="46"/>
    <vehicle id="car_15" type="typeCar" route="SN1" depart="46"/>
    <vehicle id="car_16" type="typeCar" route="NS2" depart="59"/>
    <vehicle id="car_17" type="typeCar" route="NS2" depart="60"/>
    <vehicle id="car_18" type="typeCar" route="SN2" depart="60"/>
    <vehicle id="car_19" type="typeCar" route="SN2" depart="69"/>
    <vehicle id="car_20" type="typeCar" route="SN2" depart="70"/>
    <vehicle id="car_21" type="typeCar" route="EW" depart="70"/>
    <vehicle id="car_22" type="typeCar" route="NS2" depart="72"/>
    <vehicle id="car_23" type="typeCar" route="NS2" depart="74"/>
    <vehicle id="car_24" type="typeCar" route="NS2" depart="77"/>
    <vehicle id="car_25" type="typeCar" route="SN2" depart="79"/>
    <vehicle id="car_26" type="typeCar" route="WE" depart="79"/>
    <vehicle id="car_27" type="typeCar" route="SN2" depart="87"/>
    <vehicle id="car_28" type="typeCar" route="SN2" depart="88"/>
    <vehicle id="car_29" type="typeCar" route="EW" depart="88"/>
    <vehicle id="car_30" type="typeCar" route="SN2" depart="89"/>
    <vehicle id="car_31" type="typeCar" route="WE" depart="89"/>
    <vehicle id="car_32" type="typeCar" route="NS2" depart="96"/>
    <vehicle id="car_33" type="typeCar" route="SN2" depart="97"/>
    <vehicle id="car_34" type="typeCar" route="SN2" depart="108"/>
    <vehicle id="car_35" type="typeCar" route="NS2" depart="110"/>
    <vehicle id="car_36" type="typeCar" route="SN2" depart="112"/>
    <vehicle id="car_37" type="typeCar" route="NS2" depart="115"/>
    <vehicle id="car_38" type="typeCar" route="NS1" depart="115"/>
    <vehicle id="car_39" type="typeCar" route="NS2" depart="120"/>
    <vehicle id="car_40" type="typeCar" route="SN2" depart="120"/>
    <vehicle id="car_41" type="typeCar" route="NS2" depart="121"/>
    <vehicle id="car_42" type="typeCar" route="NS2" depart="126"/>
    <vehicle id="car_43" type="typeCar" route="NS1" depart="126"/>
    <vehicle id="car_44" type="typeCar" route="NS2" depart="133"/>
    <vehicle id="car_45" type="typeCar" route="NS2" depart="146"/>
    <vehicle id="car_46" type="typeCar" route="NS2" depart="151"/>
    <vehicle id="car_47" type="typeCar" route="SN2" depart="152"/>
    <vehicle id="car_48" type="typeCar" route="NS2" depart="156"/>
    <vehicle id="car_49" type="typeCar" route="SN2" depart="160"/>
    <vehicle id="car_50" type="typeCar" route="WE" depart="160"/>
    <vehicle id="car_51" type="typeCar" route="NS2" depart="166"/>
    <vehicle id="car_52" type="typeCar" route="NS2" depart="167"/>
    <vehicle id="car_53" type="typeCar" route="SN2" depart="167"/>
    <vehicle id="car_54" type="typeCar" route="WE" depart="167"/>
    <vehicle id="car_55" type="typeCar" route="NS2" depart="169"/>
    <vehicle id="car_56" type="typeCar" route="NS2" depart="174"/>
    <vehicle id="car_57" type="typeCar" route="NS2" depart="175"/>
    <vehicle id="car_58" type="typeCar" route="SN2" depart="178"/>
    <vehicle id="car_59" type="typeCar" route="EW" depart="178"/>
    <vehicle id="car_60" type="typeCar" route="SN2" depart="179"/>
    <vehicle id="car_61" type="typeCar" route="SN2" depart="181"/>
    <vehicle id="car_62" type="typeCar" route="NS2" depart="183"/>
    <vehicle id="car_63" type="typeCar" route="NS2" depart="185"/>
    <vehicle id="car_64" type="typeCar" route="SN2" depart="187"/>
    <vehicle id="car_65" type="typeCar" route="NS2" depart="195"/>
    <vehicle id="car_66" type="typeCar" route="NS2" depart="196"/>
    <vehicle id="car_67" type="typeCar" route="SN1" depart="196"/>
    <vehicle id="car_68" type="typeCar" route="NS2" depart="201"/>
    <vehicle id="car_69" type="typeCar" route="SN2" depart="201"/>
    <vehicle id="car_70" type="typeCar" route="NS2" depart="203"/>
    <vehicle id="car_71" type="typeCar" route="NS2" depart="205"/>
    <vehicle id="car_72" type="typeCar" route="NS2" depart="206"/>
    <vehicle id="car_73" type="typeCar" route="NS1" depart="206"/>
    <vehicle id="car_74" type="typeCar" route="SN2" depart="208"/>
    <vehicle id="car_75" type="typeCar" route="SN2" depart="211"/>
    <vehicle id="car_76" type="typeCar" route="SN2" depart="217"/>
    <vehicle id="car_77" type="typeCar" route="SN2" depart="218"/>
    <vehicle id="car_78" type="typeCar" route="SN2" depart="220"/>
    <vehicle id="car_79" type="typeCar" route="WE" depart="220"/>
    <vehicle id="car_80" type="typeCar" route="EW" depart="220"/>
    <vehicle id="car_81" type="typeCar" route="SN2" depart="221"/>
    <vehicle id="car_82" type="typeCar" route="NS2" depart="222"/>
    <vehicle id="car_83" type="typeCar" route="NS2" depart="223"/>
    <vehicle id="car_84" type="typeCar" route="NS2" depart="225"/>
    <vehicle id="car_85" type="typeCar" route="SN2" depart="226"/>
    <vehicle id="car_86" type="typeCar" route="NS2" depart="232"/>
    <vehicle id="car_87" type="typeCar" route="NS2" depart="234"/>
    <vehicle id="car_88" type="typeCar" route="SN2" depart="234"/>
    <vehicle id="car_89" type="typeCar" route="EW" depart="234"/>
    <vehicle id="car_90" type="typeCar" route="NS2" depart="236"/>
    <vehicle id="car_91" type="typeCar" route="NS1" depart="236"/>
    <vehicle id="car_92" type="typeCar" route="SN1" depart="236"/>
    <vehicle id="car_93" type="typeCar" route="NS2" depart="237"/>
    <vehicle id="car_94" type="typeCar" route="NS2" depart="238"/>
    <vehicle id="car_95" type="typeCar" route="NS2" depart="240"/>
    <vehicle id="car_96" type="typeCar" route="NS2" depart="247"/>
    <vehicle id="car_97" type="typeCar" route="SN2" depart="247"/>
    <vehicle id="car_98" type="typeCar" route="EW" depart="247"/>
    <vehicle id="car_99" type="typeCar" route="SN2" depart="248"/>
    <vehicle id="car_100" type="typeCar" route="EW" depart="248"/>
    <vehicle id="car_101" type="typeCar" route="NS2" depart="253"/>
    <vehicle id="car_102" type="typeCar" route="NS2" depart="261"/>
    <vehicle id="car_103" type="typeCar" route="SN2" depart="261"/>
    <vehicle id="car_104" type="typeCar" route="NS2" depart="271"/>
    <vehicle id="car_105" type="typeCar" route="SN2" depart="275"/>
    <vehicle id="car_106" type="typeCar" route="NS2" depart="276"/>
    <vehicle id="car_107" type="typeCar" route="NS2" depart="281"/>
    <vehicle id="car_108" type="typeCar" route="SN2" depart="283"/>
    <vehicle id="car_109" type="typeCar" route="EW" depart="283"/>
    <vehicle id="car_110" type="typeCar" route="SN2" depart="284"/>
    <vehicle id="car_111" type="typeCar" route="NS2" depart="288"/>
    <vehicle id="car_112" type="typeCar" route="SN1" depart="288"/>
    <vehicle id="car_113" type="typeCar" route="NS2" depart="291"/>
    <vehicle id="car_114" type="typeCar" route="NS2" depart="292"/>
    <vehicle id="car_115" type="typeCar" route="NS2" depart="298"/>
    <vehicle id="car_116" type="typeCar" route="SN2" depart="304"/>
    <vehicle id="car_117" type="typeCar" route="NS2" depart="306"/>
    <vehicle id="car_118" type="typeCar" route="NS2" depart="307"/>
    <vehicle id="car_119" type="typeCar" route="SN1" depart="307"/>
    <vehicle id="car_120" type="typeCar" route="NS2" depart="308"/>
    <vehicle id="car_121" type="typeCar" route="NS1" depart="308"/>
    <vehicle id="car_122" type="typeCar" route="NS2" depart="312"/>
    <vehicle id="car_123" type="typeCar" route="SN1" depart="312"/>
    <vehicle id="car_124" type="typeCar" route="SN2" depart="314"/>
    <vehicle id="car_125" type="typeCar" route="SN2" depart="323"/>
    <vehicle id="car_126" type="typeCar" route="NS2" depart="324"/>
    <vehicle id="car_127" type="typeCar" route="SN2" depart="325"/>
    <vehicle id="car_128" type="typeCar" route="NS2" depart="326"/>
    <vehicle id="car_129" type="typeCar" route="NS1" depart="326"/>
    <vehicle id="car_130" type="typeCar" route="SN2" depart="327"/>
    <vehicle id="car_131" type="typeCar" route="WE" depart="327"/>
    <vehicle id="car_132" type="typeCar" route="EW" depart="327"/>
    <vehicle id="car_133" type="typeCar" route="NS2" depart="328"/>
    <vehicle id="car_134" type="typeCar" route="SN2" depart="329"/>
    <vehicle id="car_135" type="typeCar" route="SN2" depart="331"/>
    <vehicle id="car_136" type="typeCar" route="SN2" depart="335"/>
    <vehicle id="car_137" type="typeCar" route="WE" depart="335"/>
    <vehicle id="car_138" type="typeCar" route="SN2" depart="336"/>
    <vehicle id="car_139" type="typeCar" route="NS2" depart="338"/>
    <vehicle id="car_140" type="typeCar" route="NS2" depart="340"/>
    <vehicle id="car_141" type="typeCar" route="NS1" depart="340"/>
    <vehicle id="car_142" type="typeCar" route="NS2" depart="343"/>
    <vehicle id="car_143" type="typeCar" route="SN2" depart="343"/>
    <vehicle id="car_144" type="typeCar" route="SN2" depart="352"/>
    <vehicle id="car_145" type="typeCar" route="NS2" depart="355"/>
    <vehicle id="car_146" type="typeCar" route="SN2" depart="355"/>
    <vehicle id="car_147" type="typeCar" route="SN2" depart="364"/>
    <vehicle id="car_148" type="typeCar" route="NS2" depart="365"/>
    <vehicle id="car_149" type="typeCar" route="SN2" depart="365"/>
    <vehicle id="car_150" type="typeCar" route="NS2" depart="372"/>
    <vehicle id="car_151" type="typeCar" route="NS1" depart="372"/>
    <vehicle id="car_152" type="typeCar" route="SN1" depart="372"/>
    <vehicle id="car_153" type="typeCar" route="SN2" depart="382"/>
    <vehicle id="car_154" type="typeCar" route="EW" depart="382"/>
    <vehicle id="car_155" type="typeCar" route="SN2" depart="386"/>
    <vehicle id="car_156" type="typeCar" route="SN2" depart="387"/>
    <vehicle id="car_157" type="typeCar" route="WE" depart="387"/>
    <vehicle id="car_158" type="typeCar" route="NS2" depart="395"/>
    <vehicle id="car_159" type="typeCar" route="SN2" depart="401"/>
    <vehicle id="car_160" type="typeCar" route="NS2" depart="403"/>
    <vehicle id="car_161" type="typeCar" route="NS2" depart="407"/>
    <vehicle id="car_162" type="typeCar" route="SN1" depart="407"/>
    <vehicle id="car_163" type="typeCar" route="NS2" depart="408"/>
    <vehicle id="car_164" type="typeCar" route="SN2" depart="418"/>
    <vehicle id="car_165" type="typeCar" route="WE" depart="418"/>
    <vehicle id="car_166" type="typeCar" route="NS2" depart="420"/>
    <vehicle id="car_167" type="typeCar" route="SN2" depart="435"/>
    <vehicle id="car_168" type="typeCar" route="SN2" depart="436"/>
    <vehicle id="car_169" type="typeCar" route="WE" depart="436"/>
    <vehicle id="car_170" type="typeCar" route="NS2" depart="437"/>
    <vehicle id="car_171" type="typeCar" route="SN2" depart="450"/>
    <vehicle id="car_172" type="typeCar" route="WE" depart="450"/>
    <vehicle id="car_173" type="typeCar" route="SN2" depart="451"/>
    <vehicle id="car_174" type="typeCar" route="EW" depart="451"/>
    <vehicle id="car_175" type="typeCar" route="NS2" depart="452"/>
    <vehicle id="car_176" type="typeCar" route="SN1" depart="452"/>
    <vehicle id="car_177" type="typeCar" route="SN2" depart="454"/>
    <vehicle id="car_178" type="typeCar" route="NS2" depart="458"/>
    <vehicle id="car_179" type="typeCar" route="NS1" depart="458"/>
    <vehicle id="car_180" type="typeCar" route="NS2" depart="460"/>
    <vehicle id="car_181" type="typeCar" route="NS1" depart="460"/>
    <vehicle id="car_182" type="typeCar" route="SN2" depart="460"/>
    <vehicle id="car_183" type="typeCar" route="NS2" depart="465"/>
    <vehicle id="car_184" type="typeCar" route="SN2" depart="471"/>
    <vehicle id="car_185" type="typeCar" route="NS2" depart="475"/>
    <vehicle id="car_186" type="typeCar" route="NS2" depart="477"/>
    <vehicle id="car_187" type="typeCar" route="NS2" depart="481"/>
    <vehicle id="car_188" type="typeCar" route="NS2" depart="483"/>
    <vehicle id="car_189" type="typeCar" route="NS1" depart="483"/>
    <vehicle id="car_190" type="typeCar" route="SN2" depart="484"/>
    <vehicle id="car_191" type="typeCar" route="SN2" depart="487"/>
    <vehicle id="car_192" type="typeCar" route="WE" depart="487"/>
    <vehicle id="car_193" type="typeCar" route="NS2" depart="489"/>
    <vehicle id="car_194" type="typeCar" route="NS1" depart="489"/>
    <vehicle id="car_195" type="typeCar" route="SN2" depart="490"/>
    <vehicle id="car_196" type="typeCar" route="SN2" depart="493"/>
    <vehicle id="car_197" type="typeCar" route="WE" depart="493"/>
    <vehicle id="car_198" type="typeCar" route="SN2" depart="499"/>
    <vehicle id="car_199" type="typeCar" route="SN2" depart="501"/>
    <vehicle id="car_200" type="typeCar" route="NS2" depart="507"/>
    <vehicle id="car_201" type="typeCar" route="SN2" depart="513"/>
    <vehicle id="car_202" type="typeCar" route="EW" depart="513"/>
    <vehicle id="car_203" type="typeCar" route="SN2" depart="519"/>
    <vehicle id="car_204" type="typeCar" route="EW" depart="519"/>
    <vehicle id="car_205" type="typeCar" route="NS2" depart="525"/>
    <vehicle id="car_206" type="typeCar" route="SN2" depart="525"/>
    <vehicle id="car_207" type="typeCar" route="SN2" depart="530"/>
    <vehicle id="car_208" type="typeCar" route="NS2" depart="533"/>
    <vehicle id="car_209" type="typeCar" route="NS2" depart="542"/>
    <vehicle id="car_210" type="typeCar" route="SN1" depart="542"/>
    <vehicle id="car_211" type="typeCar" route="NS2" depart="543"/>
    <vehicle id="car_212" type="typeCar" route="NS1" depart="543"/>
    <vehicle id="car_213" type="typeCar" route="NS2" depart="544"/>
    <vehicle id="car_214" type="typeCar" route="NS2" depart="549"/>
    <vehicle id="car_215" type="typeCar" route="SN1" depart="549"/>
    <vehicle id="car_216" type="typeCar" route="NS2" depart="554"/>
    <vehicle id="car_217" type="typeCar" route="SN2" depart="555"/>
    <vehicle id="car_218" type="typeCar" route="NS2" depart="562"/>
    <vehicle id="car_219" type="typeCar" route="SN2" depart="566"/>
    <vehicle id="car_220" type="typeCar" route="SN2" depart="571"/>
    <vehicle id="car_221" type="typeCar" route="NS2" depart="581"/>
    <vehicle id="car_222" type="typeCar" route="SN2" depart="587"/>
    <vehicle id="car_223" type="typeCar" route="NS2" depart="588"/>
    <vehicle id="car_224" type="typeCar" route="SN2" depart="590"/>
    <vehicle id="car_225" type="typeCar" route="NS2" depart="598"/>
    <vehicle id="car_226" type="typeCar" route="SN2" depart="599"/>
    <vehicle id="car_227" type="typeCar" route="WE" depart="599"/>
    <vehicle id="car_228" type="typeCar" route="NS2" depart="603"/>
    <vehicle id="car_229" type="typeCar" route="SN2" depart="605"/>
    <vehicle id="car_230" type="typeCar" route="WE" depart="605"/>
    <vehicle id="car_231" type="typeCar" route="SN2" depart="613"/>
    <vehicle id="car_232" type="typeCar" route="SN2" depart="614"/>
    <vehicle id="car_233" type="typeCar" route="NS2" depart="622"/>
    <vehicle id="car_234" type="typeCar" route="SN2" depart="623"/>
    <vehicle id="car_235" type="typeCar" route="SN2" depart="624"/>
    <vehicle id="car_236" type="typeCar" route="SN2" depart="631"/>
    <vehicle id="car_237" type="typeCar" route="EW" depart="631"/>
    <vehicle id="car_238" type="typeCar" route="SN2" depart="635"/>
    <vehicle id="car_239" type="typeCar" route="NS2" depart="636"/>
    <vehicle id="car_240" type="typeCar" route="SN2" depart="637"/>
    <vehicle id="car_241" type="typeCar" route="EW" depart="637"/>
    <vehicle id="car_242" type="typeCar" route="NS2" depart="643"/>
    <vehicle id="car_243" type="typeCar" route="SN2" depart="643"/>
    <vehicle id="car_244" type="typeCar" route="NS2" depart="648"/>
    <vehicle id="car_245" type="typeCar" route="SN2" depart="649"/>
    <vehicle id="car_246" type="typeCar" route="SN2" depart="652"/>
    <vehicle id="car_247" type="typeCar" route="SN2" depart="655"/>
    <vehicle id="car_248" type="typeCar" route="SN2" depart="657"/>
    <vehicle id="car_249" type="typeCar" route="NS2" depart="658"/>
    <vehicle id="car_250" type="typeCar" route="NS2" depart="659"/>
    <vehicle id="car_251" type="typeCar" route="SN2" depart="659"/>
    <vehicle id="car_252" type="typeCar" route="WE" depart="659"/>
    <vehicle id="car_253" type="typeCar" route="SN2" depart="663"/>
    <vehicle id="car_254" type="typeCar" route="NS2" depart="665"/>
    <vehicle id="car_255" type="typeCar" route="SN1" depart="665"/>
    <vehicle id="car_256" type="typeCar" route="NS2" depart="672"/>
    <vehicle id="car_257" type="typeCar" route="SN2" depart="672"/>
    <vehicle id="car_258" type="typeCar" route="WE" depart="672"/>
    <vehicle id="car_259" type="typeCar" route="NS2" depart="678"/>
    <vehicle id="car_260" type="typeCar" route="NS1" depart="678"/>
    <vehicle id="car_261" type="typeCar" route="NS2" depart="687"/>
    <vehicle id="car_262" type="typeCar" route="SN1" depart="687"/>
    <vehicle id="car_263" type="typeCar" route="SN2" depart="687"/>
    <vehicle id="car_264" type="typeCar" route="NS2" depart="688"/>
    <vehicle id="car_265" type="typeCar" route="NS2" depart="690"/>
    <vehicle id="car_266" type="typeCar" route="SN2" depart="691"/>
    <vehicle id="car_267" type="typeCar" route="SN2" depart="692"/>
    <vehicle id="car_268" type="typeCar" route="NS2" depart="693"/>
    <vehicle id="car_269" type="typeCar" route="SN2" depart="700"/>
    <vehicle id="car_270" type="typeCar" route="WE" depart="700"/>
    <vehicle id="car_271" type="typeCar" route="NS2" depart="706"/>
    <vehicle id="car_272" type="typeCar" route="SN2" depart="708"/>
    <vehicle id="car_273" type="typeCar" route="NS2" depart="717"/>
    <vehicle id="car_274" type="typeCar" route="SN2" depart="719"/>
    <vehicle id="car_275" type="typeCar" route="SN2" depart="730"/>
    <vehicle id="car_276" type="typeCar" route="WE" depart="730"/>
    <vehicle id="car_277" type="typeCar" route="NS2" depart="732"/>
    <vehicle id="car_278" type="typeCar" route="NS2" depart="737"/>
    <vehicle id="car_279" type="typeCar" route="SN2" depart="738"/>
    <vehicle id="car_280" type="typeCar" route="EW" depart="738"/>
    <vehicle id="car_281" type="typeCar" route="SN2" depart="742"/>
    <vehicle id="car_282" type="typeCar" route="WE" depart="742"/>
    <vehicle id="car_283" type="typeCar" route="SN2" depart="747"/>
    <vehicle id="car_284" type="typeCar" route="WE" depart="747"/>
    <vehicle id="car_285" type="typeCar" route="EW" depart="747"/>
    <vehicle id="car_286" type="typeCar" route="NS2" depart="748"/>
    <vehicle id="car_287" type="typeCar" route="SN1" depart="748"/>
    <vehicle id="car_288" type="typeCar" route="NS2" depart="752"/>
    <vehicle id="car_289" type="typeCar" route="NS1" depart="752"/>
    <vehicle id="car_290" type="typeCar" route="SN2" depart="754"/>
    <vehicle id="car_291" type="typeCar" route="NS2" depart="758"/>
    <vehicle id="car_292" type="typeCar" route="NS2" depart="762"/>
    <vehicle id="car_293" type="typeCar" route="NS2" depart="768"/>
    <vehicle id="car_294" type="typeCar" route="NS2" depart="771"/>
    <vehicle id="car_295" type="typeCar" route="SN2" depart="781"/>
    <vehicle id="car_296" type="typeCar" route="NS2" depart="782"/>
    <vehicle id="car_297" type="typeCar" route="SN2" depart="784"/>
    <vehicle id="car_298" type="typeCar" route="SN2" depart="785"/>
    <vehicle id="car_299" type="typeCar" route="NS2" depart="787"/>
    <vehicle id="car_300" type="typeCar" route="NS1" depart="787"/>
    <vehicle id="car_301" type="typeCar" route="NS2" depart="788"/>
    <vehicle id="car_302" type="typeCar" route="SN2" depart="789"/>
    <vehicle id="car_303" type="typeCar" route="WE" depart="789"/>
    <vehicle id="car_304" type="typeCar" route="NS2" depart="791"/>
    <vehicle id="car_305" type="typeCar" route="NS2" depart="792"/>
    <vehicle id="car_306" type="typeCar" route="NS2" depart="793"/>
    <vehicle id="car_307" type="typeCar" route="SN2" depart="800"/>
    <vehicle id="car_308" type="typeCar" route="NS2" depart="801"/>
    <vehicle id="car_309" type="typeCar" route="SN2" depart="801"/>
    <vehicle id="car_310" type="typeCar" route="NS2" depart="802"/>
    <vehicle id="car_311" type="typeCar" route="SN2" depart="806"/>
    <vehicle id="car_312" type="typeCar" route="SN2" depart="813"/>
    <vehicle id="car_313" type="typeCar" route="NS2" depart="820"/>
    <vehicle id="car_314" type="typeCar" route="NS1" depart="820"/>
    <vehicle id="car_315" type="typeCar" route="SN2" depart="824"/>
    <vehicle id="car_316" type="typeCar" route="SN2" depart="830"/>
    <vehicle id="car_317" type="typeCar" route="EW" depart="830"/>
    <vehicle id="car_318" type="typeCar" route="SN2" depart="834"/>
    <vehicle id="car_319" type="typeCar" route="SN2" depart="835"/>
    <vehicle id="car_320" type="typeCar" route="NS2" depart="840"/>
    <vehicle id="car_321" type="typeCar" route="SN2" depart="841"/>
    <vehicle id="car_322" type="typeCar" route="WE" depart="841"/>
    <vehicle id="car_323" type="typeCar" route="NS2" depart="844"/>
    <vehicle id="car_324" type="typeCar" route="NS2" depart="847"/>
    <vehicle id="car_325" type="typeCar" route="SN1" depart="847"/>
    <vehicle id="car_326" type="typeCar" route="SN2" depart="849"/>
    <vehicle id="car_327" type="typeCar" route="SN2" depart="856"/>
    <vehicle id="car_328" type="typeCar" route="SN2" depart="861"/>
    <vehicle id="car_329" type="typeCar" route="NS2" depart="863"/>
    <vehicle id="car_330" type="typeCar" route="SN1" depart="863"/>
    <vehicle id="car_331" type="typeCar" route="SN2" depart="866"/>
    <vehicle id="car_332" type="typeCar" route="NS2" depart="867"/>
    <vehicle id="car_333" type="typeCar" route="SN2" depart="868"/>
    <vehicle id="car_334" type="typeCar" route="WE" depart="868"/>
    <vehicle id="car_335" type="typeCar" route="NS2" depart="869"/>
    <vehicle id="car_336" type="typeCar" route="SN2" depart="869"/>
    <vehicle id="car_337" type="typeCar" route="NS2" depart="872"/>
    <vehicle id="car_338" type="typeCar" route="SN2" depart="879"/>
    <vehicle id="car_339" type="typeCar" route="SN2" depart="881"/>
    <vehicle id="car_340" type="typeCar" route="SN2" depart="884"/>
    <vehicle id="car_341" type="typeCar" route="NS2" depart="887"/>
    <vehicle id="car_342" type="typeCar" route="SN1" depart="887"/>
    <vehicle id="car_343" type="typeCar" route="NS2" depart="889"/>
    <vehicle id="car_344" type="typeCar" route="NS1" depart="889"/>
    <vehicle id="car_345" type="typeCar" route="SN2" depart="891"/>
    <vehicle id="car_346" type="typeCar" route="EW" depart="891"/>
    <vehicle id="car_347" type="typeCar" route="NS2" depart="897"/>
    <vehicle id="car_348" type="typeCar" route="NS2" depart="898"/>
    <vehicle id="car_349" type="typeCar" route="NS2" depart="902"/>
    <vehicle id="car_350" type="typeCar" route="SN1" depart="902"/>
    <vehicle id="car_351" type="typeCar" route="SN2" depart="903"/>
    <vehicle id="car_352" type="typeCar" route="EW" depart="903"/>
    <vehicle id="car_353" type="typeCar" route="NS2" depart="904"/>
    <vehicle id="car_354" type="typeCar" route="SN2" depart="904"/>
    <vehicle id="car_355" type="typeCar" route="WE" depart="904"/>
    <vehicle id="car_356" type="typeCar" route="SN2" depart="905"/>
    <vehicle id="car_357" type="typeCar" route="WE" depart="905"/>
    <vehicle id="car_358" type="typeCar" route="NS2" depart="910"/>
    <vehicle id="car_359" type="typeCar" route="SN1" depart="910"/>
    <vehicle id="car_360" type="typeCar" route="NS2" depart="914"/>
    <vehicle id="car_361" type="typeCar" route="NS2" depart="915"/>
    <vehicle id="car_362" type="typeCar" route="SN2" depart="918"/>
    <vehicle id="car_363" type="typeCar" route="SN2" depart="921"/>
    <vehicle id="car_364" type="typeCar" route="WE" depart="921"/>
    <vehicle id="car_365" type="typeCar" route="SN2" depart="924"/>
    <vehicle id="car_366" type="typeCar" route="WE" depart="924"/>
    <vehicle id="car_367" type="typeCar" route="SN2" depart="926"/>
    <vehicle id="car_368" type="typeCar" route="NS2" depart="927"/>
    <vehicle id="car_369" type="typeCar" route="NS2" depart="942"/>
    <vehicle id="car_370" type="typeCar" route="NS1" depart="942"/>
    <vehicle id="car_371" type="typeCar" route="SN2" depart="943"/>
    <vehicle id="car_372" type="typeCar" route="SN2" depart="944"/>
    <vehicle id="car_373" type="typeCar" route="SN2" depart="945"/>
    <vehicle id="car_374" type="typeCar" route="EW" depart="945"/>
    <vehicle id="car_375" type="typeCar" route="NS2" depart="954"/>
    <vehicle id="car_376" type="typeCar" route="NS2" depart="955"/>
    <vehicle id="car_377" type="typeCar" route="SN2" depart="955"/>
    <vehicle id="car_378" type="typeCar" route="SN2" depart="956"/>
    <vehicle id="car_379" type="typeCar" route="NS2" depart="957"/>
    <vehicle id="car_380" type="typeCar" route="SN2" depart="957"/>
    <vehicle id="car_381" type="typeCar" route="NS2" depart="961"/>
    <vehicle id="car_382" type="typeCar" route="SN1" depart="961"/>
    <vehicle id="car_383" type="typeCar" route="NS2" depart="964"/>
    <vehicle id="car_384" type="typeCar" route="SN1" depart="964"/>
    <vehicle id="car_385" type="typeCar" route="SN2" depart="975"/>
    <vehicle id="car_386" type="typeCar" route="NS2" depart="977"/>
    <vehicle id="car_387" type="typeCar" route="SN2" depart="978"/>
    <vehicle id="car_388" type="typeCar" route="NS2" depart="980"/>
    <vehicle id="car_389" type="typeCar" route="NS2" depart="984"/>
    <vehicle id="car_390" type="typeCar" route="NS2" depart="986"/>
    <vehicle id="car_391" type="typeCar" route="SN2" depart="988"/>
    <vehicle id="car_392" type="typeCar" route="WE" depart="988"/>
    <vehicle id="car_393" type="typeCar" route="EW" depart="988"/>
    <vehicle id="car_394" type="typeCar" route="NS2" depart="989"/>
    <vehicle id="car_395" type="typeCar" route="SN2" depart="990"/>
    <vehicle id="car_396" type="typeCar" route="NS2" depart="995"/>
    <vehicle id="car_397" type="typeCar" route="NS2" depart="998"/>
    <vehicle id="car_398" type="typeCar" route="SN2" depart="998"/>
    <vehicle id="car_399" type="typeCar" route="SN2" depart="1019"/>
    <vehicle id="car_400" type="typeCar" route="NS2" depart="1021"/>
    <vehicle id="car_401" type="typeCar" route="NS1" depart="1021"/>
    <vehicle id="car_402" type="typeCar" route="SN2" depart="1024"/>
    <vehicle id="car_403" type="typeCar" route="NS2" depart="1025"/>
    <vehicle id="car_404" type="typeCar" route="NS1" depart="1025"/>
    <vehicle id="car_405" type="typeCar" route="NS2" depart="1026"/>
    <vehicle id="car_406" type="typeCar" route="NS2" depart="1032"/>
    <vehicle id="car_407" type="typeCar" route="SN1" depart="1032"/>
    <vehicle id="car_408" type="typeCar" route="SN2" depart="1036"/>
    <vehicle id="car_409" type="typeCar" route="NS2" depart="1048"/>
    <vehicle id="car_410" type="typeCar" route="SN2" depart="1054"/>
    <vehicle id="car_411" type="typeCar" route="SN2" depart="1058"/>
    <vehicle id="car_412" type="typeCar" route="SN2" depart="1061"/>
    <vehicle id="car_413" type="typeCar" route="SN2" depart="1066"/>
    <vehicle id="car_414" type="typeCar" route="SN2" depart="1067"/>
    <vehicle id="car_415" type="typeCar" route="NS2" depart="1068"/>
    <vehicle id="car_416" type="typeCar" route="NS2" depart="1069"/>
    <vehicle id="car_417" type="typeCar" route="SN2" depart="1070"/>
    <vehicle id="car_418" type="typeCar" route="NS2" depart="1077"/>
    <vehicle id="car_419" type="typeCar" route="NS2" depart="1078"/>
    <vehicle id="car_420" type="typeCar" route="SN2" depart="1079"/>
    <vehicle id="car_421" type="typeCar" route="WE" depart="1079"/>
    <vehicle id="car_422" type="typeCar" route="NS2" depart="1085"/>
    <vehicle id="car_423" type="typeCar" route="SN2" depart="1087"/>
    <vehicle id="car_424" type="typeCar" route="NS2" depart="1088"/>
    <vehicle id="car_425" type="typeCar" route="SN1" depart="1088"/>
    <vehicle id="car_426" type="typeCar" route="NS2" depart="1096"/>
    <vehicle id="car_427" type="typeCar" route="NS1" depart="1096"/>
    <vehicle id="car_428" type="typeCar" route="SN2" depart="1097"/>
    <vehicle id="car_429" type="typeCar" route="SN2" depart="1100"/>
    <vehicle id="car_430" type="typeCar" route="SN2" depart="1101"/>
    <vehicle id="car_431" type="typeCar" route="NS2" depart="1103"/>
    <vehicle id="car_432" type="typeCar" route="NS2" depart="1107"/>
    <vehicle id="car_433" type="typeCar" route="NS1" depart="1107"/>
    <vehicle id="car_434" type="typeCar" route="SN2" depart="1107"/>
    <vehicle id="car_435" type="typeCar" route="WE" depart="1107"/>
    <vehicle id="car_436" type="typeCar" route="NS2" depart="1116"/>