<routes>
        <vType id="typeCar" accel="0.8" decel="4.5" sigma="0.5" length="5" minGap="2.5" maxSpeed="16.67" guiShape="passenger"/>

        <route id="NS1" edges="n12A A2s1" />
        <route id="SN1" edges="s12A A2n1" />
        <route id="NS2" edges="n22B B2s2" />
        <route id="SN2" edges="s22B B2n2" />
        <route id="WE" edges="w2A A2B B2e" />
        <route id="EW" edges="e2B B2A A2w" />
    <vehicle id="car_0" type="typeCar" route="SN2" depart="2"/>
    <vehicle id="car_1" type="typeCar" route="SN2" depart="9"/>
    <vehicle id="car_2" type="typeCar" route="NS2" depart="10"/>
    <vehicle id="car_3" type="typeCar" route="NS1" depart="10"/>
    <vehicle id="car_4" type="typeCar" route="NS2" depart="14"/>
    <vehicle id="car_5" type="typeCar" route="NS2" depart="15"/>
    <vehicle id="car_6" type="typeCar" route="NS1" depart="15"/>
    <vehicle id="car_7" type="typeCar" route="NS2" depart="16"/>
    <vehicle id="car_8" type="typeCar" route="NS2" depart="20"/>
    <vehicle id="car_9" type="typeCar" route="NS1" depart="20"/>
    <vehicle id="car_10" type="typeCar" route="SN2" depart="24"/>
    <vehicle id="car_11" type="typeCar" route="NS2" depart="30"/>
    <vehicle id="car_12" type="typeCar" route="NS2" depart="32"/>
    <vehicle id="car_13" type="typeCar" route="SN2" depart="36"/>
    <vehicle id="car_14" type="typeCar" route="SN2" depart="42"/>
    <vehicle id="car_15" type="typeCar" route="SN2" depart="43"/>
    <vehicle id="car_16" type="typeCar" route="NS2" depart="53"/>
    <vehicle id="car_17" type="typeCar" route="SN2" depart="61"/>
    <vehicle id="car_18" type="typeCar" route="SN2" depart="72"/>
    <vehicle id="car_19" type="typeCar" route="SN2" depart="80"/>
    <vehicle id="car_20" type="typeCar" route="NS2" depart="84"/>
    <vehicle id="car_21" type="typeCar" route="SN2" depart="85"/>
    <vehicle id="car_22" type="typeCar" route="EW" depart="85"/>
    <vehicle id="car_23" type="typeCar" route="SN2" depart="94"/>
    <vehicle id="car_24" type="typeCar" route="NS2" depart="96"/>
    <vehicle id="car_25" type="typeCar" route="NS2" depart="98"/>
    <vehicle id="car_26" type="typeCar" route="NS2" depart="99"/>
    <vehicle id="car_27" type="typeCar" route="NS2" depart="115"/>
    <vehicle id="car_28" type="typeCar" route="SN2" depart="116"/>
    <vehicle id="car_29" type="typeCar" route="WE" depart="116"/>
    <vehicle id="car_30" type="typeCar" route="SN2" depart="119"/>
    <vehicle id="car_31" type="typeCar" route="WE" depart="119"/>
    <vehicle id="car_32" type="typeCar" route="EW" depart="119"/>
    <vehicle id="car_33" type="typeCar" route="NS2" depart="121"/>
    <vehicle id="car_34" type="typeCar" route="NS2" depart="122"/>
    <vehicle id="car_35" type="typeCar" route="SN2" depart="122"/>
    <vehicle id="car_36" type="typeCar" route="WE" depart="122"/>
    <vehicle id="car_37" type="typeCar" route="NS2" depart="123"/>
    <vehicle id="car_38" type="typeCar" route="SN2" depart="123"/>
    <vehicle id="car_39" type="typeCar" route="SN2" depart="126"/>
    <vehicle id="car_40" type="typeCar" route="EW" depart="126"/>
    <vehicle id="car_41" type="typeCar" route="SN2" depart="127"/>
    <vehicle id="car_42" type="typeCar" route="NS2" depart="129"/>
    <vehicle id="car_43" type="typeCar" route="NS1" depart="129"/>
    <vehicle id="car_44" type="typeCar" route="SN2" depart="130"/>
    <vehicle id="car_45" type="typeCar" route="NS2" depart="136"/>
    <vehicle id="car_46" type="typeCar" route="SN1" depart="136"/>
    <vehicle id="car_47" type="typeCar" route="SN2" depart="139"/>
    <vehicle id="car_48" type="typeCar" route="EW" depart="139"/>
    <vehicle id="car_49" type="typeCar" route="SN2" depart="141"/>
    <vehicle id="car_50" type="typeCar" route="SN2" depart="142"/>
    <vehicle id="car_51" type="typeCar" route="SN2" depart="144"/>
    <vehicle id="car_52" type="typeCar" route="EW" depart="144"/>
    <vehicle id="car_53" type="typeCar" route="NS2" depart="149"/>
    <vehicle id="car_54" type="typeCar" route="SN2" depart="149"/>
    <vehicle id="car_55" type="typeCar" route="NS2" depart="151"/>
    <vehicle id="car_56" type="typeCar" route="NS1" depart="151"/>
    <vehicle id="car_57" type="typeCar" route="NS2" depart="162"/>
    <vehicle id="car_58" type="typeCar" route="NS2" depart="164"/>
    <vehicle id="car_59" type="typeCar" route="NS2" depart="167"/>
    <vehicle id="car_60" type="typeCar" route="SN2" depart="169"/>
    <vehicle id="car_61" type="typeCar" route="NS2" depart="172"/>
    <vehicle id="car_62" type="typeCar" route="NS1" depart="172"/>
    <vehicle id="car_63" type="typeCar" route="SN2" depart="174"/>
    <vehicle id="car_64" type="typeCar" route="SN2" depart="177"/>
    <vehicle id="car_65" type="typeCar" route="EW" depart="177"/>
    <vehicle id="car_66" type="typeCar" route="NS2" depart="178"/>
    <vehicle id="car_67" type="typeCar" route="NS2" depart="179"/>
    <vehicle id="car_68" type="typeCar" route="SN1" depart="179"/>
    <vehicle id="car_69" type="typeCar" route="SN2" depart="180"/>
    <vehicle id="car_70" type="typeCar" route="NS2" depart="183"/>
    <vehicle id="car_71" type="typeCar" route="NS1" depart="183"/>
    <vehicle id="car_72" type="typeCar" route="SN2" depart="183"/>
    <vehicle id="car_73" type="typeCar" route="SN2" depart="192"/>
    <vehicle id="car_74" type="typeCar" route="NS2" depart="197"/>
    <vehicle id="car_75" type="typeCar" route="NS2" depart="205"/>
    <vehicle id="car_76" type="typeCar" route="SN2" depart="207"/>
    <vehicle id="car_77" type="typeCar" route="NS2" depart="209"/>
    <vehicle id="car_78" type="typeCar" route="NS1" depart="209"/>
    <vehicle id="car_79" type="typeCar" route="SN2" depart="212"/>
    <vehicle id="car_80" type="typeCar" route="EW" depart="212"/>
    <vehicle id="car_81" type="typeCar" route="SN2" depart="213"/>
    <vehicle id="car_82" type="typeCar" route="SN2" depart="219"/>
    <vehicle id="car_83" type="typeCar" route="SN2" depart="223"/>
    <vehicle id="car_84" type="typeCar" route="NS2" depart="225"/>
    <vehicle id="car_85" type="typeCar" route="NS1" depart="225"/>
    <vehicle id="car_86" type="typeCar" route="NS2" depart="226"/>
    <vehicle id="car_87" type="typeCar" route="NS2" depart="232"/>
    <vehicle id="car_88" type="typeCar" route="NS1" depart="232"/>
    <vehicle id="car_89" type="typeCar" route="NS2" depart="240"/>
    <vehicle id="car_90" type="typeCar" route="SN2" depart="244"/>
    <vehicle id="car_91" type="typeCar" route="NS2" depart="252"/>
    <vehicle id="car_92" type="typeCar" route="NS2" depart="266"/>
    <vehicle id="car_93" type="typeCar" route="SN2" depart="267"/>
    <vehicle id="car_94" type="typeCar" route="SN2" depart="268"/>
    <vehicle id="car_95" type="typeCar" route="SN2" depart="272"/>
    <vehicle id="car_96" type="typeCar" route="NS2" depart="274"/>
    <vehicle id="car_97" type="typeCar" route="NS2" depart="277"/>
    <vehicle id="car_98" type="typeCar" route="NS2" depart="286"/>
    <vehicle id="car_99" type="typeCar" route="NS2" depart="298"/>
    <vehicle id="car_100" type="typeCar" route="NS1" depart="298"/>
    <vehicle id="car_101" type="typeCar" route="NS2" depart="303"/>
    <vehicle id="car_102" type="typeCar" route="SN2" depart="303"/>
    <vehicle id="car_103" type="typeCar" route="NS2" depart="304"/>
    <vehicle id="car_104" type="typeCar" route="NS2" depart="305"/>
    <vehicle id="car_105" type="typeCar" route="NS2" depart="309"/>
    <vehicle id="car_106" type="typeCar" route="SN2" depart="309"/>
    <vehicle id="car_107" type="typeCar" route="NS2" depart="310"/>
    <vehicle id="car_108" type="typeCar" route="SN2" depart="314"/>
    <vehicle id="car_109" type="typeCar" route="NS2" depart="321"/>
    <vehicle id="car_110" type="typeCar" route="NS2" depart="324"/>
    <vehicle id="car_111" type="typeCar" route="SN1" depart="324"/>
    <vehicle id="car_112" type="typeCar" route="NS2" depart="328"/>
    <vehicle id="car_113" type="typeCar" route="NS2" depart="329"/>
    <vehicle id="car_114" type="typeCar" route="SN2" depart="331"/>
    <vehicle id="car_115" type="typeCar" route="NS2" depart="332"/>
    <vehicle id="car_116" type="typeCar" route="NS1" depart="332"/>
    <vehicle id="car_117" type="typeCar" route="NS2" depart="340"/>
    <vehicle id="car_118" type="typeCar" route="NS2" depart="345"/>
    <vehicle id="car_119" type="typeCar" route="NS2" depart="350"/>
    <vehicle id="car_120" type="typeCar" route="SN2" depart="354"/>
    <vehicle id="car_121" type="typeCar" route="NS2" depart="355"/>
    <vehicle id="car_122" type="typeCar" route="NS2" depart="357"/>
    <vehicle id="car_123" type="typeCar" route="NS2" depart="358"/>
    <vehicle id="car_124" type="typeCar" route="SN2" depart="359"/>
    <vehicle id="car_125" type="typeCar" route="NS2" depart="360"/>
    <vehicle id="car_126" type="typeCar" route="SN2" depart="360"/>
    <vehicle id="car_127" type="typeCar" route="SN2" depart="365"/>
    <vehicle id="car_128" type="typeCar" route="SN2" depart="367"/>
    <vehicle id="car_129" type="typeCar" route="WE" depart="367"/>
    <vehicle id="car_130" type="typeCar" route="NS2" depart="371"/>
    <vehicle id="car_131" type="typeCar" route="NS1" depart="371"/>
    <vehicle id="car_132" type="typeCar" route="SN1" depart="371"/>
    <vehicle id="car_133" type="typeCar" route="SN2" depart="371"/>
    <vehicle id="car_134" type="typeCar" route="NS2" depart="374"/>
    <vehicle id="car_135" type="typeCar" route="NS2" depart="383"/>
    <vehicle id="car_136" type="typeCar" route="SN2" depart="389"/>
    <vehicle id="car_137" type="typeCar" route="SN2" depart="403"/>
    <vehicle id="car_138" type="typeCar" route="EW" depart="403"/>
    <vehicle id="car_139" type="typeCar" route="NS2" depart="407"/>
    <vehicle id="car_140" type="typeCar" route="NS1" depart="407"/>
    <vehicle id="car_141" type="typeCar" route="SN2" depart="413"/>
    <vehicle id="car_142" type="typeCar" route="NS2" depart="416"/>
    <vehicle id="car_143" type="typeCar" route="NS2" depart="419"/>
    <vehicle id="car_144" type="typeCar" route="NS2" depart="422"/>
    <vehicle id="car_145" type="typeCar" route="NS2" depart="431"/>
    <vehicle id="car_146" type="typeCar" route="SN2" depart="431"/>
    <vehicle id="car_147" type="typeCar" route="SN2" depart="432"/>
    <vehicle id="car_148" type="typeCar" route="NS2" depart="434"/>
    <vehicle id="car_149" type="typeCar" route="SN1" depart="434"/>
    <vehicle id="car_150" type="typeCar" route="SN2" depart="435"/>
    <vehicle id="car_151" type="typeCar" route="NS2" depart="440"/>
    <vehicle id="car_152" type="typeCar" route="SN2" depart="441"/>
    <vehicle id="car_153" type="typeCar" route="NS2" depart="442"/>
    <vehicle id="car_154" type="typeCar" route="SN2" depart="442"/>
    <vehicle id="car_155" type="typeCar" route="NS2" depart="448"/>
    <vehicle id="car_156" type="typeCar" route="SN1" depart="448"/>
    <vehicle id="car_157" type="typeCar" route="SN2" depart="450"/>
    <vehicle id="car_158" type="typeCar" route="NS2" depart="451"/>
    <vehicle id="car_159" type="typeCar" route="SN2" depart="451"/>
    <vehicle id="car_160" type="typeCar" route="SN2" depart="456"/>
    <vehicle id="car_161" type="typeCar" route="EW" depart="456"/>
    <vehicle id="car_162" type="typeCar" route="SN2" depart="457"/>
    <vehicle id="car_163" type="typeCar" route="SN2" depart="468"/>
    <vehicle id="car_164" type="typeCar" route="NS2" depart="476"/>
    <vehicle id="car_165" type="typeCar" route="SN2" depart="481"/>
    <vehicle id="car_166" type="typeCar" route="NS2" depart="484"/>
    <vehicle id="car_167" type="typeCar" route="SN2" depart="486"/>
    <vehicle id="car_168" type="typeCar" route="WE" depart="486"/>
    <vehicle id="car_169" type="typeCar" route="SN2" depart="489"/>
    <vehicle id="car_170" type="typeCar" route="NS2" depart="490"/>
    <vehicle id="car_171" type="typeCar" route="NS2" depart="492"/>
    <vehicle id="car_172" type="typeCar" route="SN2" depart="499"/>
    <vehicle id="car_173" type="typeCar" route="SN2" depart="501"/>
    <vehicle id="car_174" type="typeCar" route="SN2" depart="503"/>
    <vehicle id="car_175" type="typeCar" route="NS2" depart="506"/>
    <vehicle id="car_176" type="typeCar" route="NS2" depart="507"/>
    <vehicle id="car_177" type="typeCar" route="NS2" depart="509"/>
    <vehicle id="car_178" type="typeCar" route="SN2" depart="510"/>
    <vehicle id="car_179" type="typeCar" route="SN2" depart="514"/>
    <vehicle id="car_180" type="typeCar" route="NS2" depart="515"/>
    <vehicle id="car_181" type="typeCar" route="NS2" depart="519"/>
    <vehicle id="car_182" type="typeCar" route="SN2" depart="523"/>
    <vehicle id="car_183" type="typeCar" route="NS2" depart="526"/>
    <vehicle id="car_184" type="typeCar" route="NS2" depart="529"/>
    <vehicle id="car_185" type="typeCar" route="NS1" depart="529"/>
    <vehicle id="car_186" type="typeCar" route="SN1" depart="529"/>
    <vehicle id="car_187" type="typeCar" route="NS2" depart="541"/>
    <vehicle id="car_188" type="typeCar" route="SN2" depart="546"/>
    <vehicle id="car_189" type="typeCar" route="SN2" depart="549"/>
    <vehicle id="car_190" type="typeCar" route="WE" depart="549"/>
    <vehicle id="car_191" type="typeCar" route="NS2" depart="553"/>
    <vehicle id="car_192" type="typeCar" route="SN2" depart="555"/>
    <vehicle id="car_193" type="typeCar" route="NS2" depart="556"/>
    <vehicle id="car_194" type="typeCar" route="NS2" depart="567"/>
    <vehicle id="car_195" type="typeCar" route="NS1" depart="567"/>
    <vehicle id="car_196" type="typeCar" route="SN2" depart="577"/>
    <vehicle id="car_197" type="typeCar" route="WE" depart="577"/>
    <vehicle id="car_198" type="typeCar" route="NS2" depart="582"/>
    <vehicle id="car_199" type="typeCar" route="SN2" depart="584"/>
    <vehicle id="car_200" type="typeCar" route="NS2" depart="588"/>
    <vehicle id="car_201" type="typeCar" route="SN2" depart="588"/>
    <vehicle id="car_202" type="typeCar" route="NS2" depart="589"/>
    <vehicle id="car_203" type="typeCar" route="SN2" depart="589"/>
    <vehicle id="car_204" type="typeCar" route="EW" depart="589"/>
    <vehicle id="car_205" type="typeCar" route="SN2" depart="594"/>
    <vehicle id="car_206" type="typeCar" route="NS2" depart="604"/>
    <vehicle id="car_207" type="typeCar" route="SN2" depart="608"/>
    <vehicle id="car_208" type="typeCar" route="WE" depart="608"/>
    <vehicle id="car_209" type="typeCar" route="SN2" depart="611"/>
    <vehicle id="car_210" type="typeCar" route="NS2" depart="615"/>
    <vehicle id="car_211" type="typeCar" route="NS2" depart="634"/>
    <vehicle id="car_212" type="typeCar" route="SN2" depart="638"/>
    <vehicle id="car_213" type="typeCar" route="NS2" depart="640"/>
    <vehicle id="car_214" type="typeCar" route="SN2" depart="642"/>
    <vehicle id="car_215" type="typeCar" route="SN2" depart="643"/>
    <vehicle id="car_216" type="typeCar" route="NS2" depart="644"/>
    <vehicle id="car_217" type="typeCar" route="SN1" depart="644"/>
    <vehicle id="car_218" type="typeCar" route="SN2" depart="648"/>
    <vehicle id="car_219" type="typeCar" route="SN2" depart="651"/>
    <vehicle id="car_220" type="typeCar" route="NS2" depart="652"/>
    <vehicle id="car_221" type="typeCar" route="NS2" depart="653"/>
    <vehicle id="car_222" type="typeCar" route="SN2" depart="653"/>
    <vehicle id="car_223" type="typeCar" route="SN2" depart="663"/>
    <vehicle id="car_224" type="typeCar" route="EW" depart="663"/>
    <vehicle id="car_225" type="typeCar" route="NS2" depart="666"/>
    <vehicle id="car_226" type="typeCar" route="NS1" depart="666"/>
    <vehicle id="car_227" type="typeCar" route="SN2" depart="667"/>
    <vehicle id="car_228" type="typeCar" route="WE" depart="667"/>
    <vehicle id="car_229" type="typeCar" route="SN2" depart="672"/>
    <vehicle id="car_230" type="typeCar" route="EW" depart="672"/>
    <vehicle id="car_231" type="typeCar" route="NS2" depart="675"/>
    <vehicle id="car_232" type="typeCar" route="SN2" depart="675"/>
    <vehicle id="car_233" type="typeCar" route="NS2" depart="681"/>
    <vehicle id="car_234" type="typeCar" route="SN2" depart="681"/>
    <vehicle id="car_235" type="typeCar" route="SN2" depart="682"/>
    <vehicle id="car_236" type="typeCar" route="EW" depart="682"/>
    <vehicle id="car_237" type="typeCar" route="SN2" depart="689"/>
    <vehicle id="car_238" type="typeCar" route="EW" depart="689"/>
    <vehicle id="car_239" type="typeCar" route="SN2" depart="690"/>
    <vehicle id="car_240" type="typeCar" route="NS2" depart="698"/>
    <vehicle id="car_241" type="typeCar" route="NS1" depart="698"/>
    <vehicle id="car_242" type="typeCar" route="SN2" depart="700"/>
    <vehicle id="car_243" type="typeCar" route="SN2" depart="702"/>
    <vehicle id="car_244" type="typeCar" route="WE" depart="702"/>
    <vehicle id="car_245" type="typeCar" route="SN2" depart="704"/>
    <vehicle id="car_246" type="typeCar" route="NS2" depart="705"/>
    <vehicle id="car_247" type="typeCar" route="NS1" depart="705"/>
    <vehicle id="car_248" type="typeCar" route="SN2" depart="707"/>
    <vehicle id="car_249" type="typeCar" route="NS2" depart="710"/>
    <vehicle id="car_250" type="typeCar" route="SN2" depart="713"/>
    <vehicle id="car_251" type="typeCar" route="EW" depart="713"/>
    <vehicle id="car_252" type="typeCar" route="SN2" depart="714"/>
    <vehicle id="car_253" type="typeCar" route="SN2" depart="716"/>
    <vehicle id="car_254" type="typeCar" route="NS2" depart="718"/>
    <vehicle id="car_255" type="typeCar" route="SN1" depart="718"/>
    <vehicle id="car_256" type="typeCar" route="SN2" depart="719"/>
    <vehicle id="car_257" type="typeCar" route="NS2" depart="723"/>
    <vehicle id="car_258" type="typeCar" route="SN2" depart="726"/>
    <vehicle id="car_259" type="typeCar" route="EW" depart="726"/>
    <vehicle id="car_260" type="typeCar" route="NS2" depart="732"/>
    <vehicle id="car_261" type="typeCar" route="SN2" depart="734"/>
    <vehicle id="car_262" type="typeCar" route="NS2" depart="735"/>
    <vehicle id="car_263" type="typeCar" route="NS2" depart="743"/>
    <vehicle id="car_264" type="typeCar" route="NS1" depart="743"/>
    <vehicle id="car_265" type="typeCar" route="NS2" depart="748"/>
    <vehicle id="car_266" type="typeCar" route="NS2" depart="750"/>
    <vehicle id="car_267" type="typeCar" route="NS2" depart="751"/>
    <vehicle id="car_268" type="typeCar" route="SN2" depart="751"/>
    <vehicle id="car_269" type="typeCar" route="NS2" depart="762"/>
    <vehicle id="car_270" type="typeCar" route="NS2" depart="769"/>
    <vehicle id="car_271" type="typeCar" route="SN2" depart="772"/>
    <vehicle id="car_272" type="typeCar" route="NS2" depart="774"/>
    <vehicle id="car_273" type="typeCar" route="SN2" depart="775"/>
    <vehicle id="car_274" type="typeCar" route="EW" depart="775"/>
    <vehicle id="car_275" type="typeCar" route="NS2" depart="776"/>
    <vehicle id="car_276" type="typeCar" route="SN2" depart="781"/>
    <vehicle id="car_277" type="typeCar" route="SN2" depart="782"/>
    <vehicle id="car_278" type="typeCar" route="EW" depart="782"/>
    <vehicle id="car_279" type="typeCar" route="SN2" depart="789"/>
    <vehicle id="car_280" type="typeCar" route="SN2" depart="792"/>
    <vehicle id="car_281" type="typeCar" route="EW" depart="792"/>
    <vehicle id="car_282" type="typeCar" route="SN2" depart="793"/>
    <vehicle id="car_283" type="typeCar" route="NS2" depart="794"/>
    <vehicle id="car_284" type="typeCar" route="NS2" depart="799"/>
    <vehicle id="car_285" type="typeCar" route="NS2" depart="805"/>
    <vehicle id="car_286" type="typeCar" route="SN1" depart="805"/>
    <vehicle id="car_287" type="typeCar" route="SN2" depart="806"/>
    <vehicle id="car_288" type="typeCar" route="WE" depart="806"/>
    <vehicle id="car_289" type="typeCar" route="SN2" depart="809"/>
    <vehicle id="car_290" type="typeCar" route="NS2" depart="811"/>
    <vehicle id="car_291" type="typeCar" route="SN1" depart="811"/>
    <vehicle id="car_292" type="typeCar" route="NS2" depart="822"/>
    <vehicle id="car_293" type="typeCar" route="NS2" depart="827"/>
    <vehicle id="car_294" type="typeCar" route="SN2" depart="827"/>
    <vehicle id="car_295" type="typeCar" route="NS2" depart="828"/>
    <vehicle id="car_296" type="typeCar" route="SN2" depart="832"/>
    <vehicle id="car_297" type="typeCar" route="WE" depart="832"/>
    <vehicle id="car_298" type="typeCar" route="SN2" depart="833"/>
    <vehicle id="car_299" type="typeCar" route="NS2" depart="838"/>
    <vehicle id="car_300" type="typeCar" route="SN2" depart="840"/>
    <vehicle id="car_301" type="typeCar" route="NS2" depart="844"/>
    <vehicle id="car_302" type="typeCar" route="NS1" depart="844"/>
    <vehicle id="car_303" type="typeCar" route="NS2" depart="845"/>
    <vehicle id="car_304" type="typeCar" route="NS2" depart="846"/>
    <vehicle id="car_305" type="typeCar" route="NS2" depart="857"/>
    <vehicle id="car_306" type="typeCar" route="NS2" depart="863"/>
    <vehicle id="car_307" type="typeCar" route="NS2" depart="866"/>
    <vehicle id="car_308" type="typeCar" route="NS2" depart="868"/>
    <vehicle id="car_309" type="typeCar" route="SN2" depart="870"/>
    <vehicle id="car_310" type="typeCar" route="SN2" depart="876"/>
    <vehicle id="car_311" type="typeCar" route="NS2" depart="880"/>
    <vehicle id="car_312" type="typeCar" route="NS1" depart="880"/>
    <vehicle id="car_313" type="typeCar" route="NS2" depart="882"/>
    <vehicle id="car_314" type="typeCar" route="SN2" depart="883"/>
    <vehicle id="car_315" type="typeCar" route="SN2" depart="884"/>
    <vehicle id="car_316" type="typeCar" route="NS2" depart="886"/>
    <vehicle id="car_317" type="typeCar" route="NS1" depart="886"/>
    <vehicle id="car_318" type="typeCar" route="NS2" depart="891"/>
    <vehicle id="car_319" type="typeCar" route="NS1" depart="891"/>
    <vehicle id="car_320" type="typeCar" route="NS2" depart="892"/>
    <vehicle id="car_321" type="typeCar" route="SN2" depart="893"/>
    <vehicle id="car_322" type="typeCar" route="EW" depart="893"/>
    <vehicle id="car_323" type="typeCar" route="NS2" depart="894"/>
    <vehicle id="car_324" type="typeCar" route="NS2" depart="895"/>
    <vehicle id="car_325" type="typeCar" route="SN2" depart="896"/>
    <vehicle id="car_326" type="typeCar" route="EW" depart="896"/>
    <vehicle id="car_327" type="typeCar" route="NS2" depart="899"/>
    <vehicle id="car_328" type="typeCar" route="SN2" depart="901"/>
    <vehicle id="car_329" type="typeCar" route="SN2" depart="904"/>
    <vehicle id="car_330" type="typeCar" route="WE" depart="904"/>
    <vehicle id="car_331" type="typeCar" route="SN2" depart="908"/>
    <vehicle id="car_332" type="typeCar" route="SN2" depart="912"/>
    <vehicle id="car_333" type="typeCar" route="NS2" depart="916"/>
    <vehicle id="car_334" type="typeCar" route="SN2" depart="917"/>
    <vehicle id="car_335" type="typeCar" route="NS2" depart="919"/>
    <vehicle id="car_336" type="typeCar" route="NS2" depart="921"/>
    <vehicle id="car_337" type="typeCar" route="SN2" depart="922"/>
    <vehicle id="car_338" type="typeCar" route="SN2" depart="924"/>
    <vehicle id="car_339" type="typeCar" route="NS2" depart="926"/>
    <vehicle id="car_340" type="typeCar" route="NS2" depart="927"/>
    <vehicle id="car_341" type="typeCar" route="NS2" depart="931"/>
    <vehicle id="car_342" type="typeCar" route="NS2" depart="934"/>
    <vehicle id="car_343" type="typeCar" route="SN2" depart="935"/>
    <vehicle id="car_344" type="typeCar" route="NS2" depart="936"/>
    <vehicle id="car_345" type="typeCar" route="NS1" depart="936"/>
    <vehicle id="car_346" type="typeCar" route="SN2" depart="937"/>
    <vehicle id="car_347" type="typeCar" route="SN2" depart="938"/>
    <vehicle id="car_348" type="typeCar" route="WE" depart="938"/>
    <vehicle id="car_349" type="typeCar" route="EW" depart="938"/>
    <vehicle id="car_350" type="typeCar" route="SN2" depart="940"/>
    <vehicle id="car_351" type="typeCar" route="WE" depart="940"/>
    <vehicle id="car_352" type="typeCar" route="SN2" depart="943"/>
    <vehicle id="car_353" type="typeCar" route="NS2" depart="944"/>
    <vehicle id="car_354" type="typeCar" route="SN1" depart="944"/>
    <vehicle id="car_355" type="typeCar" route="NS2" depart="948"/>
    <vehicle id="car_356" type="typeCar" route="SN2" depart="948"/>
    <vehicle id="car_357" type="typeCar" route="SN2" depart="950"/>
    <vehicle id="car_358" type="typeCar" route="SN2" depart="956"/>
    <vehicle id="car_359" type="typeCar" route="WE" depart="956"/>
    <vehicle id="car_360" type="typeCar" route="NS2" depart="960"/>
    <vehicle id="car_361" type="typeCar" route="NS2" depart="961"/>
    <vehicle id="car_362" type="typeCar" route="NS1" depart="961"/>
    <vehicle id="car_363" type="typeCar" route="SN2" depart="968"/>
    <vehicle id="car_364" type="typeCar" route="SN2" depart="972"/>
    <vehicle id="car_365" type="typeCar" route="SN2" depart="975"/>
    <vehicle id="car_366" type="typeCar" route="SN2" depart="978"/>
    <vehicle id="car_367" type="typeCar" route="SN2" depart="984"/>
    <vehicle id="car_368" type="typeCar" route="SN2" depart="985"/>
    <vehicle id="car_369" type="typeCar" route="NS2" depart="991"/>
</routes>
