<!--for output-->
<additional>


	<!--<tlLogic id="6" type="static" programID="5" offset="0" >
	        <phase duration="40" state="rrrrGGGggrrrrGGGgg"/>
	        <phase duration="5"  state="rrrryyyyyrrrryyyyy"/>
	        <phase duration="40" state="GGggrrrrrGGggrrrrr"/>
	        <phase duration="5"  state="yyyyrrrrryyyyrrrrr"/>
	</tlLogic>
	
	<timedEvent type="SaveTLSStates" source="0" dest="cross.out"/>
	<timedEvent type="SaveTLSStates" source="6" dest="cross.out"/>
	-->
 
 	<!--<e1Detector id="nA0" lane="n2A_0" pos="-20" freq="10" file="cross.out"/>
 	<e1Detector id="nA1" lane="n2A_1" pos="-20" freq="10" file="cross.out"/>-->
 	
 	<laneAreaDetector id="wA0" lanes="w2A_0" pos="155" endPos="185" freq="10" file="cross.out"/> 
 	<laneAreaDetector id="n1A0" lanes="n12A_0" pos="155" endPos="185" freq="10" file="cross.out"/> 
 	<laneAreaDetector id="BA0" lanes="B2A_0" pos="145" endPos="175" freq="10" file="cross.out"/> 
 	<laneAreaDetector id="s1A0" lanes="s12A_0" pos="155" endPos="185" freq="10" file="cross.out"/> 
 	<laneAreaDetector id="eB0" lanes="e2B_0" pos="155" endPos="185" freq="10" file="cross.out"/> 
 	<laneAreaDetector id="n2B0" lanes="n22B_0" pos="155" endPos="185" freq="10" file="cross.out"/> 	
 	<laneAreaDetector id="AB0" lanes="A2B_0" pos="145" endPos="175" freq="10" file="cross.out"/> 
 	<laneAreaDetector id="s2B0" lanes="s22B_0" pos="155" endPos="185" freq="10" file="cross.out"/> 

 	<timedEvent type="SaveTLSStates" source="A" dest="cross.out"/>
   
</additional>