<routes>
        <vType id="typeCar" accel="0.8" decel="4.5" sigma="0.5" length="5" minGap="2.5" maxSpeed="16.67" guiShape="passenger"/>

        <route id="NS1" edges="n12A A2s1" />
        <route id="SN1" edges="s12A A2n1" />
        <route id="NS2" edges="n22B B2s2" />
        <route id="SN2" edges="s22B B2n2" />
        <route id="WE" edges="w2A A2B B2e" />
        <route id="EW" edges="e2B B2A A2w" />
    <vehicle id="car_0" type="typeCar" route="NS2" depart="0"/>
    <vehicle id="car_1" type="typeCar" route="SN2" depart="1"/>
    <vehicle id="car_2" type="typeCar" route="WE" depart="1"/>
    <vehicle id="car_3" type="typeCar" route="NS2" depart="8"/>
    <vehicle id="car_4" type="typeCar" route="SN2" depart="22"/>
    <vehicle id="car_5" type="typeCar" route="SN2" depart="29"/>
    <vehicle id="car_6" type="typeCar" route="NS2" depart="31"/>
    <vehicle id="car_7" type="typeCar" route="SN2" depart="31"/>
    <vehicle id="car_8" type="typeCar" route="WE" depart="31"/>
    <vehicle id="car_9" type="typeCar" route="EW" depart="31"/>
    <vehicle id="car_10" type="typeCar" route="NS2" depart="33"/>
    <vehicle id="car_11" type="typeCar" route="NS2" depart="36"/>
    <vehicle id="car_12" type="typeCar" route="NS2" depart="37"/>
    <vehicle id="car_13" type="typeCar" route="SN1" depart="37"/>
    <vehicle id="car_14" type="typeCar" route="SN2" depart="40"/>
    <vehicle id="car_15" type="typeCar" route="SN2" depart="41"/>
    <vehicle id="car_16" type="typeCar" route="NS2" depart="42"/>
    <vehicle id="car_17" type="typeCar" route="NS1" depart="42"/>
    <vehicle id="car_18" type="typeCar" route="SN2" depart="42"/>
    <vehicle id="car_19" type="typeCar" route="NS2" depart="43"/>
    <vehicle id="car_20" type="typeCar" route="NS2" depart="44"/>
    <vehicle id="car_21" type="typeCar" route="NS2" depart="50"/>
    <vehicle id="car_22" type="typeCar" route="SN2" depart="51"/>
    <vehicle id="car_23" type="typeCar" route="NS2" depart="53"/>
    <vehicle id="car_24" type="typeCar" route="NS2" depart="58"/>
    <vehicle id="car_25" type="typeCar" route="SN1" depart="58"/>
    <vehicle id="car_26" type="typeCar" route="NS2" depart="63"/>
    <vehicle id="car_27" type="typeCar" route="NS2" depart="64"/>
    <vehicle id="car_28" type="typeCar" route="NS2" depart="66"/>
    <vehicle id="car_29" type="typeCar" route="NS2" depart="68"/>
    <vehicle id="car_30" type="typeCar" route="SN2" depart="69"/>
    <vehicle id="car_31" type="typeCar" route="NS2" depart="71"/>
    <vehicle id="car_32" type="typeCar" route="NS2" depart="76"/>
    <vehicle id="car_33" type="typeCar" route="SN2" depart="80"/>
    <vehicle id="car_34" type="typeCar" route="NS2" depart="87"/>
    <vehicle id="car_35" type="typeCar" route="SN2" depart="90"/>
    <vehicle id="car_36" type="typeCar" route="NS2" depart="93"/>
    <vehicle id="car_37" type="typeCar" route="SN2" depart="93"/>
    <vehicle id="car_38" type="typeCar" route="WE" depart="93"/>
    <vehicle id="car_39" type="typeCar" route="SN2" depart="94"/>
    <vehicle id="car_40" type="typeCar" route="NS2" depart="100"/>
    <vehicle id="car_41" type="typeCar" route="SN2" depart="101"/>
    <vehicle id="car_42" type="typeCar" route="EW" depart="101"/>
    <vehicle id="car_43" type="typeCar" route="SN2" depart="108"/>
    <vehicle id="car_44" type="typeCar" route="SN2" depart="115"/>
    <vehicle id="car_45" type="typeCar" route="SN2" depart="117"/>
    <vehicle id="car_46" type="typeCar" route="NS2" depart="118"/>
    <vehicle id="car_47" type="typeCar" route="SN2" depart="124"/>
    <vehicle id="car_48" type="typeCar" route="WE" depart="124"/>
    <vehicle id="car_49" type="typeCar" route="EW" depart="124"/>
    <vehicle id="car_50" type="typeCar" route="NS2" depart="128"/>
    <vehicle id="car_51" type="typeCar" route="SN2" depart="130"/>
    <vehicle id="car_52" type="typeCar" route="NS2" depart="132"/>
    <vehicle id="car_53" type="typeCar" route="SN2" depart="144"/>
    <vehicle id="car_54" type="typeCar" route="SN2" depart="146"/>
    <vehicle id="car_55" type="typeCar" route="WE" depart="146"/>
    <vehicle id="car_56" type="typeCar" route="SN2" depart="147"/>
    <vehicle id="car_57" type="typeCar" route="NS2" depart="148"/>
    <vehicle id="car_58" type="typeCar" route="NS2" depart="150"/>
    <vehicle id="car_59" type="typeCar" route="NS2" depart="151"/>
    <vehicle id="car_60" type="typeCar" route="SN1" depart="151"/>
    <vehicle id="car_61" type="typeCar" route="SN2" depart="153"/>
    <vehicle id="car_62" type="typeCar" route="NS2" depart="154"/>
    <vehicle id="car_63" type="typeCar" route="SN2" depart="154"/>
    <vehicle id="car_64" type="typeCar" route="NS2" depart="155"/>
    <vehicle id="car_65" type="typeCar" route="NS2" depart="161"/>
    <vehicle id="car_66" type="typeCar" route="NS1" depart="161"/>
    <vehicle id="car_67" type="typeCar" route="SN2" depart="163"/>
    <vehicle id="car_68" type="typeCar" route="EW" depart="163"/>
    <vehicle id="car_69" type="typeCar" route="NS2" depart="164"/>
    <vehicle id="car_70" type="typeCar" route="SN1" depart="164"/>
    <vehicle id="car_71" type="typeCar" route="SN2" depart="171"/>
    <vehicle id="car_72" type="typeCar" route="WE" depart="171"/>
    <vehicle id="car_73" type="typeCar" route="SN2" depart="173"/>
    <vehicle id="car_74" type="typeCar" route="WE" depart="173"/>
    <vehicle id="car_75" type="typeCar" route="NS2" depart="177"/>
    <vehicle id="car_76" type="typeCar" route="NS2" depart="182"/>
    <vehicle id="car_77" type="typeCar" route="SN2" depart="182"/>
    <vehicle id="car_78" type="typeCar" route="NS2" depart="183"/>
    <vehicle id="car_79" type="typeCar" route="NS2" depart="184"/>
    <vehicle id="car_80" type="typeCar" route="NS2" depart="188"/>
    <vehicle id="car_81" type="typeCar" route="NS2" depart="190"/>
    <vehicle id="car_82" type="typeCar" route="SN2" depart="195"/>
    <vehicle id="car_83" type="typeCar" route="NS2" depart="196"/>
    <vehicle id="car_84" type="typeCar" route="NS1" depart="196"/>
    <vehicle id="car_85" type="typeCar" route="SN2" depart="197"/>
    <vehicle id="car_86" type="typeCar" route="EW" depart="197"/>
    <vehicle id="car_87" type="typeCar" route="SN2" depart="198"/>
    <vehicle id="car_88" type="typeCar" route="EW" depart="198"/>
    <vehicle id="car_89" type="typeCar" route="SN2" depart="200"/>
    <vehicle id="car_90" type="typeCar" route="SN2" depart="205"/>
    <vehicle id="car_91" type="typeCar" route="WE" depart="205"/>
    <vehicle id="car_92" type="typeCar" route="NS2" depart="207"/>
    <vehicle id="car_93" type="typeCar" route="SN2" depart="214"/>
    <vehicle id="car_94" type="typeCar" route="SN2" depart="217"/>
    <vehicle id="car_95" type="typeCar" route="NS2" depart="218"/>
    <vehicle id="car_96" type="typeCar" route="NS2" depart="219"/>
    <vehicle id="car_97" type="typeCar" route="SN2" depart="219"/>
    <vehicle id="car_98" type="typeCar" route="EW" depart="219"/>
    <vehicle id="car_99" type="typeCar" route="NS2" depart="221"/>
    <vehicle id="car_100" type="typeCar" route="NS1" depart="221"/>
    <vehicle id="car_101" type="typeCar" route="SN2" depart="224"/>
    <vehicle id="car_102" type="typeCar" route="EW" depart="224"/>
    <vehicle id="car_103" type="typeCar" route="SN2" depart="232"/>
    <vehicle id="car_104" type="typeCar" route="NS2" depart="233"/>
    <vehicle id="car_105" type="typeCar" route="SN2" depart="236"/>
    <vehicle id="car_106" type="typeCar" route="WE" depart="236"/>
    <vehicle id="car_107" type="typeCar" route="NS2" depart="237"/>
    <vehicle id="car_108" type="typeCar" route="SN1" depart="237"/>
    <vehicle id="car_109" type="typeCar" route="NS2" depart="242"/>
    <vehicle id="car_110" type="typeCar" route="NS1" depart="242"/>
    <vehicle id="car_111" type="typeCar" route="SN1" depart="242"/>
    <vehicle id="car_112" type="typeCar" route="NS2" depart="244"/>
    <vehicle id="car_113" type="typeCar" route="NS2" depart="249"/>
    <vehicle id="car_114" type="typeCar" route="SN2" depart="249"/>
    <vehicle id="car_115" type="typeCar" route="EW" depart="249"/>
    <vehicle id="car_116" type="typeCar" route="SN2" depart="251"/>
    <vehicle id="car_117" type="typeCar" route="SN2" depart="254"/>
    <vehicle id="car_118" type="typeCar" route="NS2" depart="255"/>
    <vehicle id="car_119" type="typeCar" route="NS2" depart="259"/>
    <vehicle id="car_120" type="typeCar" route="NS2" depart="260"/>
    <vehicle id="car_121" type="typeCar" route="NS2" depart="269"/>
    <vehicle id="car_122" type="typeCar" route="SN2" depart="269"/>
    <vehicle id="car_123" type="typeCar" route="EW" depart="269"/>
    <vehicle id="car_124" type="typeCar" route="SN2" depart="270"/>
    <vehicle id="car_125" type="typeCar" route="SN2" depart="274"/>
    <vehicle id="car_126" type="typeCar" route="NS2" depart="277"/>
    <vehicle id="car_127" type="typeCar" route="NS2" depart="279"/>
    <vehicle id="car_128" type="typeCar" route="SN1" depart="279"/>
    <vehicle id="car_129" type="typeCar" route="SN2" depart="280"/>
    <vehicle id="car_130" type="typeCar" route="SN2" depart="282"/>
    <vehicle id="car_131" type="typeCar" route="WE" depart="282"/>
    <vehicle id="car_132" type="typeCar" route="NS2" depart="287"/>
    <vehicle id="car_133" type="typeCar" route="NS2" depart="291"/>
    <vehicle id="car_134" type="typeCar" route="NS2" depart="293"/>
    <vehicle id="car_135" type="typeCar" route="NS2" depart="298"/>
    <vehicle id="car_136" type="typeCar" route="NS2" depart="306"/>
    <vehicle id="car_137" type="typeCar" route="NS2" depart="307"/>
    <vehicle id="car_138" type="typeCar" route="NS2" depart="310"/>
    <vehicle id="car_139" type="typeCar" route="SN2" depart="314"/>
    <vehicle id="car_140" type="typeCar" route="WE" depart="314"/>
    <vehicle id="car_141" type="typeCar" route="NS2" depart="317"/>
    <vehicle id="car_142" type="typeCar" route="NS1" depart="317"/>
    <vehicle id="car_143" type="typeCar" route="SN2" depart="321"/>
    <vehicle id="car_144" type="typeCar" route="NS2" depart="322"/>
    <vehicle id="car_145" type="typeCar" route="SN2" depart="324"/>
    <vehicle id="car_146" type="typeCar" route="EW" depart="324"/>
    <vehicle id="car_147" type="typeCar" route="SN2" depart="325"/>
    <vehicle id="car_148" type="typeCar" route="WE" depart="325"/>
    <vehicle id="car_149" type="typeCar" route="EW" depart="325"/>
    <vehicle id="car_150" type="typeCar" route="NS2" depart="327"/>
    <vehicle id="car_151" type="typeCar" route="NS2" depart="329"/>
    <vehicle id="car_152" type="typeCar" route="NS2" depart="330"/>
    <vehicle id="car_153" type="typeCar" route="SN2" depart="330"/>
    <vehicle id="car_154" type="typeCar" route="EW" depart="330"/>
    <vehicle id="car_155" type="typeCar" route="NS2" depart="335"/>
    <vehicle id="car_156" type="typeCar" route="SN2" depart="338"/>
    <vehicle id="car_157" type="typeCar" route="NS2" depart="346"/>
    <vehicle id="car_158" type="typeCar" route="NS2" depart="353"/>
    <vehicle id="car_159" type="typeCar" route="NS1" depart="353"/>
    <vehicle id="car_160" type="typeCar" route="SN1" depart="353"/>
    <vehicle id="car_161" type="typeCar" route="SN2" depart="362"/>
    <vehicle id="car_162" type="typeCar" route="WE" depart="362"/>
    <vehicle id="car_163" type="typeCar" route="NS2" depart="364"/>
    <vehicle id="car_164" type="typeCar" route="SN1" depart="364"/>
    <vehicle id="car_165" type="typeCar" route="SN2" depart="366"/>
    <vehicle id="car_166" type="typeCar" route="NS2" depart="371"/>
    <vehicle id="car_167" type="typeCar" route="NS2" depart="373"/>
    <vehicle id="car_168" type="typeCar" route="NS2" depart="375"/>
    <vehicle id="car_169" type="typeCar" route="SN2" depart="376"/>
    <vehicle id="car_170" type="typeCar" route="SN2" depart="377"/>
    <vehicle id="car_171" type="typeCar" route="NS2" depart="384"/>
    <vehicle id="car_172" type="typeCar" route="SN2" depart="384"/>
    <vehicle id="car_173" type="typeCar" route="NS2" depart="390"/>
    <vehicle id="car_174" type="typeCar" route="SN1" depart="390"/>
    <vehicle id="car_175" type="typeCar" route="SN2" depart="392"/>
    <vehicle id="car_176" type="typeCar" route="EW" depart="392"/>
    <vehicle id="car_177" type="typeCar" route="SN2" depart="397"/>
    <vehicle id="car_178" type="typeCar" route="NS2" depart="398"/>
    <vehicle id="car_179" type="typeCar" route="NS2" depart="401"/>
    <vehicle id="car_180" type="typeCar" route="SN2" depart="402"/>
    <vehicle id="car_181" type="typeCar" route="NS2" depart="406"/>
    <vehicle id="car_182" type="typeCar" route="NS2" depart="414"/>
    <vehicle id="car_183" type="typeCar" route="SN2" depart="415"/>
    <vehicle id="car_184" type="typeCar" route="NS2" depart="422"/>
    <vehicle id="car_185" type="typeCar" route="NS2" depart="432"/>
    <vehicle id="car_186" type="typeCar" route="SN2" depart="432"/>
    <vehicle id="car_187" type="typeCar" route="SN2" depart="433"/>
    <vehicle id="car_188" type="typeCar" route="WE" depart="433"/>
    <vehicle id="car_189" type="typeCar" route="NS2" depart="435"/>
    <vehicle id="car_190" type="typeCar" route="SN2" depart="445"/>
    <vehicle id="car_191" type="typeCar" route="NS2" depart="448"/>
    <vehicle id="car_192" type="typeCar" route="NS2" depart="449"/>
    <vehicle id="car_193" type="typeCar" route="SN2" depart="450"/>
    <vehicle id="car_194" type="typeCar" route="SN2" depart="451"/>
    <vehicle id="car_195" type="typeCar" route="NS2" depart="453"/>
    <vehicle id="car_196" type="typeCar" route="SN2" depart="455"/>
    <vehicle id="car_197" type="typeCar" route="NS2" depart="463"/>
    <vehicle id="car_198" type="typeCar" route="NS1" depart="463"/>
    <vehicle id="car_199" type="typeCar" route="SN1" depart="463"/>
    <vehicle id="car_200" type="typeCar" route="NS2" depart="466"/>
    <vehicle id="car_201" type="typeCar" route="NS2" depart="467"/>
    <vehicle id="car_202" type="typeCar" route="NS2" depart="468"/>
    <vehicle id="car_203" type="typeCar" route="SN2" depart="468"/>
    <vehicle id="car_204" type="typeCar" route="SN2" depart="472"/>
    <vehicle id="car_205" type="typeCar" route="NS2" depart="478"/>
    <vehicle id="car_206" type="typeCar" route="NS1" depart="478"/>
    <vehicle id="car_207" type="typeCar" route="SN1" depart="478"/>
    <vehicle id="car_208" type="typeCar" route="SN2" depart="480"/>
    <vehicle id="car_209" type="typeCar" route="NS2" depart="483"/>
    <vehicle id="car_210" type="typeCar" route="SN2" depart="486"/>
    <vehicle id="car_211" type="typeCar" route="SN2" depart="487"/>
    <vehicle id="car_212" type="typeCar" route="NS2" depart="498"/>
    <vehicle id="car_213" type="typeCar" route="SN2" depart="498"/>
    <vehicle id="car_214" type="typeCar" route="EW" depart="498"/>
</routes>
