<routes>
        <vType id="typeCar" accel="0.8" decel="4.5" sigma="0.5" length="5" minGap="2.5" maxSpeed="16.67" guiShape="passenger"/>

        <route id="NS" edges="n2A A2s" />
        <route id="WE" edges="w2A A2e" />
        <route id="SN" edges="s2A A2n" />
        <route id="EW" edges="e2A A2w" />
    <vehicle id="car_0" type="typeCar" route="EW" depart="2"/>
    <vehicle id="car_1" type="typeCar" route="SN" depart="4"/>
    <vehicle id="car_2" type="typeCar" route="WE" depart="6"/>
    <vehicle id="car_3" type="typeCar" route="EW" depart="11"/>
    <vehicle id="car_4" type="typeCar" route="WE" depart="12"/>
    <vehicle id="car_5" type="typeCar" route="WE" depart="15"/>
    <vehicle id="car_6" type="typeCar" route="EW" depart="15"/>
    <vehicle id="car_7" type="typeCar" route="SN" depart="20"/>
    <vehicle id="car_8" type="typeCar" route="EW" depart="20"/>
    <vehicle id="car_9" type="typeCar" route="NS" depart="25"/>
    <vehicle id="car_10" type="typeCar" route="WE" depart="26"/>
    <vehicle id="car_11" type="typeCar" route="WE" depart="28"/>
    <vehicle id="car_12" type="typeCar" route="EW" depart="28"/>
    <vehicle id="car_13" type="typeCar" route="WE" depart="31"/>
    <vehicle id="car_14" type="typeCar" route="EW" depart="34"/>
    <vehicle id="car_15" type="typeCar" route="WE" depart="36"/>
    <vehicle id="car_16" type="typeCar" route="SN" depart="37"/>
    <vehicle id="car_17" type="typeCar" route="EW" depart="40"/>
    <vehicle id="car_18" type="typeCar" route="NS" depart="42"/>
    <vehicle id="car_19" type="typeCar" route="EW" depart="44"/>
    <vehicle id="car_20" type="typeCar" route="NS" depart="46"/>
    <vehicle id="car_21" type="typeCar" route="NS" depart="52"/>
    <vehicle id="car_22" type="typeCar" route="WE" depart="53"/>
    <vehicle id="car_23" type="typeCar" route="NS" depart="54"/>
    <vehicle id="car_24" type="typeCar" route="WE" depart="56"/>
    <vehicle id="car_25" type="typeCar" route="SN" depart="60"/>
    <vehicle id="car_26" type="typeCar" route="EW" depart="60"/>
    <vehicle id="car_27" type="typeCar" route="EW" depart="61"/>
    <vehicle id="car_28" type="typeCar" route="EW" depart="64"/>
    <vehicle id="car_29" type="typeCar" route="NS" depart="65"/>
    <vehicle id="car_30" type="typeCar" route="EW" depart="66"/>
    <vehicle id="car_31" type="typeCar" route="WE" depart="71"/>
    <vehicle id="car_32" type="typeCar" route="EW" depart="77"/>
    <vehicle id="car_33" type="typeCar" route="WE" depart="78"/>
    <vehicle id="car_34" type="typeCar" route="EW" depart="78"/>
    <vehicle id="car_35" type="typeCar" route="EW" depart="81"/>
    <vehicle id="car_36" type="typeCar" route="WE" depart="83"/>
    <vehicle id="car_37" type="typeCar" route="NS" depart="84"/>
    <vehicle id="car_38" type="typeCar" route="EW" depart="85"/>
    <vehicle id="car_39" type="typeCar" route="WE" depart="86"/>
    <vehicle id="car_40" type="typeCar" route="EW" depart="89"/>
    <vehicle id="car_41" type="typeCar" route="SN" depart="96"/>
    <vehicle id="car_42" type="typeCar" route="WE" depart="96"/>
    <vehicle id="car_43" type="typeCar" route="NS" depart="98"/>
    <vehicle id="car_44" type="typeCar" route="NS" depart="99"/>
    <vehicle id="car_45" type="typeCar" route="EW" depart="102"/>
    <vehicle id="car_46" type="typeCar" route="NS" depart="105"/>
    <vehicle id="car_47" type="typeCar" route="EW" depart="106"/>
    <vehicle id="car_48" type="typeCar" route="SN" depart="110"/>
    <vehicle id="car_49" type="typeCar" route="WE" depart="113"/>
    <vehicle id="car_50" type="typeCar" route="SN" depart="116"/>
    <vehicle id="car_51" type="typeCar" route="NS" depart="118"/>
    <vehicle id="car_52" type="typeCar" route="SN" depart="122"/>
    <vehicle id="car_53" type="typeCar" route="NS" depart="123"/>
    <vehicle id="car_54" type="typeCar" route="WE" depart="123"/>
    <vehicle id="car_55" type="typeCar" route="NS" depart="125"/>
    <vehicle id="car_56" type="typeCar" route="WE" depart="126"/>
    <vehicle id="car_57" type="typeCar" route="EW" depart="131"/>
    <vehicle id="car_58" type="typeCar" route="SN" depart="134"/>
    <vehicle id="car_59" type="typeCar" route="WE" depart="134"/>
    <vehicle id="car_60" type="typeCar" route="NS" depart="137"/>
    <vehicle id="car_61" type="typeCar" route="EW" depart="140"/>
    <vehicle id="car_62" type="typeCar" route="NS" depart="141"/>
    <vehicle id="car_63" type="typeCar" route="WE" depart="141"/>
    <vehicle id="car_64" type="typeCar" route="WE" depart="142"/>
    <vehicle id="car_65" type="typeCar" route="EW" depart="142"/>
    <vehicle id="car_66" type="typeCar" route="WE" depart="145"/>
    <vehicle id="car_67" type="typeCar" route="NS" depart="146"/>
    <vehicle id="car_68" type="typeCar" route="WE" depart="150"/>
    <vehicle id="car_69" type="typeCar" route="WE" depart="151"/>
    <vehicle id="car_70" type="typeCar" route="EW" depart="151"/>
    <vehicle id="car_71" type="typeCar" route="WE" depart="154"/>
    <vehicle id="car_72" type="typeCar" route="WE" depart="155"/>
    <vehicle id="car_73" type="typeCar" route="WE" depart="157"/>
    <vehicle id="car_74" type="typeCar" route="SN" depart="158"/>
    <vehicle id="car_75" type="typeCar" route="WE" depart="169"/>
    <vehicle id="car_76" type="typeCar" route="WE" depart="170"/>
    <vehicle id="car_77" type="typeCar" route="WE" depart="171"/>
    <vehicle id="car_78" type="typeCar" route="EW" depart="176"/>
    <vehicle id="car_79" type="typeCar" route="EW" depart="180"/>
    <vehicle id="car_80" type="typeCar" route="NS" depart="188"/>
    <vehicle id="car_81" type="typeCar" route="WE" depart="188"/>
    <vehicle id="car_82" type="typeCar" route="SN" depart="190"/>
    <vehicle id="car_83" type="typeCar" route="NS" depart="192"/>
    <vehicle id="car_84" type="typeCar" route="WE" depart="193"/>
    <vehicle id="car_85" type="typeCar" route="EW" depart="194"/>
    <vehicle id="car_86" type="typeCar" route="WE" depart="195"/>
    <vehicle id="car_87" type="typeCar" route="EW" depart="196"/>
    <vehicle id="car_88" type="typeCar" route="WE" depart="200"/>
    <vehicle id="car_89" type="typeCar" route="NS" depart="201"/>
    <vehicle id="car_90" type="typeCar" route="SN" depart="205"/>
    <vehicle id="car_91" type="typeCar" route="WE" depart="206"/>
    <vehicle id="car_92" type="typeCar" route="WE" depart="208"/>
    <vehicle id="car_93" type="typeCar" route="EW" depart="211"/>
    <vehicle id="car_94" type="typeCar" route="NS" depart="212"/>
    <vehicle id="car_95" type="typeCar" route="EW" depart="212"/>
    <vehicle id="car_96" type="typeCar" route="SN" depart="213"/>
    <vehicle id="car_97" type="typeCar" route="EW" depart="214"/>
    <vehicle id="car_98" type="typeCar" route="NS" depart="215"/>
    <vehicle id="car_99" type="typeCar" route="EW" depart="215"/>
    <vehicle id="car_100" type="typeCar" route="SN" depart="219"/>
    <vehicle id="car_101" type="typeCar" route="SN" depart="220"/>
    <vehicle id="car_102" type="typeCar" route="EW" depart="222"/>
    <vehicle id="car_103" type="typeCar" route="NS" depart="227"/>
    <vehicle id="car_104" type="typeCar" route="EW" depart="229"/>
    <vehicle id="car_105" type="typeCar" route="EW" depart="230"/>
    <vehicle id="car_106" type="typeCar" route="NS" depart="232"/>
    <vehicle id="car_107" type="typeCar" route="WE" depart="235"/>
    <vehicle id="car_108" type="typeCar" route="EW" depart="236"/>
    <vehicle id="car_109" type="typeCar" route="EW" depart="238"/>
    <vehicle id="car_110" type="typeCar" route="EW" depart="241"/>
    <vehicle id="car_111" type="typeCar" route="EW" depart="243"/>
    <vehicle id="car_112" type="typeCar" route="NS" depart="244"/>
    <vehicle id="car_113" type="typeCar" route="EW" depart="244"/>
    <vehicle id="car_114" type="typeCar" route="NS" depart="246"/>
    <vehicle id="car_115" type="typeCar" route="EW" depart="247"/>
    <vehicle id="car_116" type="typeCar" route="NS" depart="248"/>
    <vehicle id="car_117" type="typeCar" route="EW" depart="248"/>
    <vehicle id="car_118" type="typeCar" route="EW" depart="249"/>
    <vehicle id="car_119" type="typeCar" route="NS" depart="254"/>
    <vehicle id="car_120" type="typeCar" route="NS" depart="256"/>
    <vehicle id="car_121" type="typeCar" route="SN" depart="256"/>
    <vehicle id="car_122" type="typeCar" route="EW" depart="256"/>
    <vehicle id="car_123" type="typeCar" route="WE" depart="263"/>
    <vehicle id="car_124" type="typeCar" route="NS" depart="264"/>
    <vehicle id="car_125" type="typeCar" route="EW" depart="264"/>
    <vehicle id="car_126" type="typeCar" route="NS" depart="265"/>
    <vehicle id="car_127" type="typeCar" route="WE" depart="265"/>
    <vehicle id="car_128" type="typeCar" route="WE" depart="266"/>
    <vehicle id="car_129" type="typeCar" route="EW" depart="268"/>
    <vehicle id="car_130" type="typeCar" route="SN" depart="279"/>
    <vehicle id="car_131" type="typeCar" route="EW" depart="281"/>
    <vehicle id="car_132" type="typeCar" route="EW" depart="282"/>
    <vehicle id="car_133" type="typeCar" route="WE" depart="285"/>
    <vehicle id="car_134" type="typeCar" route="EW" depart="288"/>
    <vehicle id="car_135" type="typeCar" route="EW" depart="291"/>
    <vehicle id="car_136" type="typeCar" route="WE" depart="292"/>
    <vehicle id="car_137" type="typeCar" route="WE" depart="296"/>
    <vehicle id="car_138" type="typeCar" route="WE" depart="297"/>
    <vehicle id="car_139" type="typeCar" route="NS" depart="303"/>
    <vehicle id="car_140" type="typeCar" route="WE" depart="303"/>
    <vehicle id="car_141" type="typeCar" route="NS" depart="305"/>
    <vehicle id="car_142" type="typeCar" route="WE" depart="305"/>
    <vehicle id="car_143" type="typeCar" route="WE" depart="307"/>
    <vehicle id="car_144" type="typeCar" route="WE" depart="310"/>
    <vehicle id="car_145" type="typeCar" route="WE" depart="312"/>
    <vehicle id="car_146" type="typeCar" route="NS" depart="319"/>
    <vehicle id="car_147" type="typeCar" route="WE" depart="321"/>
    <vehicle id="car_148" type="typeCar" route="SN" depart="322"/>
    <vehicle id="car_149" type="typeCar" route="SN" depart="323"/>
    <vehicle id="car_150" type="typeCar" route="NS" depart="325"/>
    <vehicle id="car_151" type="typeCar" route="NS" depart="327"/>
    <vehicle id="car_152" type="typeCar" route="EW" depart="327"/>
    <vehicle id="car_153" type="typeCar" route="EW" depart="328"/>
    <vehicle id="car_154" type="typeCar" route="WE" depart="329"/>
    <vehicle id="car_155" type="typeCar" route="EW" depart="331"/>
    <vehicle id="car_156" type="typeCar" route="EW" depart="335"/>
    <vehicle id="car_157" type="typeCar" route="SN" depart="336"/>
    <vehicle id="car_158" type="typeCar" route="WE" depart="339"/>
    <vehicle id="car_159" type="typeCar" route="WE" depart="341"/>
    <vehicle id="car_160" type="typeCar" route="NS" depart="342"/>
    <vehicle id="car_161" type="typeCar" route="EW" depart="343"/>
    <vehicle id="car_162" type="typeCar" route="EW" depart="347"/>
    <vehicle id="car_163" type="typeCar" route="NS" depart="348"/>
    <vehicle id="car_164" type="typeCar" route="WE" depart="353"/>
    <vehicle id="car_165" type="typeCar" route="SN" depart="359"/>
    <vehicle id="car_166" type="typeCar" route="WE" depart="365"/>
    <vehicle id="car_167" type="typeCar" route="NS" depart="366"/>
    <vehicle id="car_168" type="typeCar" route="WE" depart="366"/>
    <vehicle id="car_169" type="typeCar" route="SN" depart="367"/>
    <vehicle id="car_170" type="typeCar" route="WE" depart="368"/>
    <vehicle id="car_171" type="typeCar" route="SN" depart="369"/>
    <vehicle id="car_172" type="typeCar" route="EW" depart="370"/>
    <vehicle id="car_173" type="typeCar" route="EW" depart="378"/>
    <vehicle id="car_174" type="typeCar" route="NS" depart="380"/>
    <vehicle id="car_175" type="typeCar" route="EW" depart="381"/>
    <vehicle id="car_176" type="typeCar" route="WE" depart="382"/>
    <vehicle id="car_177" type="typeCar" route="SN" depart="385"/>
    <vehicle id="car_178" type="typeCar" route="EW" depart="385"/>
    <vehicle id="car_179" type="typeCar" route="NS" depart="390"/>
    <vehicle id="car_180" type="typeCar" route="WE" depart="399"/>
    <vehicle id="car_181" type="typeCar" route="SN" depart="401"/>
    <vehicle id="car_182" type="typeCar" route="WE" depart="401"/>
    <vehicle id="car_183" type="typeCar" route="NS" depart="403"/>
    <vehicle id="car_184" type="typeCar" route="EW" depart="406"/>
    <vehicle id="car_185" type="typeCar" route="WE" depart="407"/>
    <vehicle id="car_186" type="typeCar" route="WE" depart="408"/>
    <vehicle id="car_187" type="typeCar" route="EW" depart="411"/>
    <vehicle id="car_188" type="typeCar" route="NS" depart="413"/>
    <vehicle id="car_189" type="typeCar" route="EW" depart="417"/>
    <vehicle id="car_190" type="typeCar" route="NS" depart="418"/>
    <vehicle id="car_191" type="typeCar" route="NS" depart="422"/>
    <vehicle id="car_192" type="typeCar" route="WE" depart="422"/>
    <vehicle id="car_193" type="typeCar" route="SN" depart="424"/>
    <vehicle id="car_194" type="typeCar" route="NS" depart="425"/>
    <vehicle id="car_195" type="typeCar" route="SN" depart="426"/>
    <vehicle id="car_196" type="typeCar" route="NS" depart="428"/>
    <vehicle id="car_197" type="typeCar" route="WE" depart="428"/>
    <vehicle id="car_198" type="typeCar" route="NS" depart="432"/>
    <vehicle id="car_199" type="typeCar" route="WE" depart="434"/>
    <vehicle id="car_200" type="typeCar" route="WE" depart="440"/>
    <vehicle id="car_201" type="typeCar" route="WE" depart="442"/>
    <vehicle id="car_202" type="typeCar" route="EW" depart="444"/>
    <vehicle id="car_203" type="typeCar" route="EW" depart="446"/>
    <vehicle id="car_204" type="typeCar" route="NS" depart="447"/>
    <vehicle id="car_205" type="typeCar" route="EW" depart="448"/>
    <vehicle id="car_206" type="typeCar" route="WE" depart="450"/>
    <vehicle id="car_207" type="typeCar" route="EW" depart="455"/>
    <vehicle id="car_208" type="typeCar" route="WE" depart="460"/>
    <vehicle id="car_209" type="typeCar" route="NS" depart="463"/>
    <vehicle id="car_210" type="typeCar" route="SN" depart="464"/>
    <vehicle id="car_211" type="typeCar" route="WE" depart="464"/>
    <vehicle id="car_212" type="typeCar" route="WE" depart="465"/>
    <vehicle id="car_213" type="typeCar" route="EW" depart="465"/>
    <vehicle id="car_214" type="typeCar" route="WE" depart="468"/>
    <vehicle id="car_215" type="typeCar" route="EW" depart="474"/>
    <vehicle id="car_216" type="typeCar" route="WE" depart="477"/>
    <vehicle id="car_217" type="typeCar" route="EW" depart="479"/>
    <vehicle id="car_218" type="typeCar" route="SN" depart="480"/>
    <vehicle id="car_219" type="typeCar" route="EW" depart="480"/>
    <vehicle id="car_220" type="typeCar" route="NS" depart="481"/>
    <vehicle id="car_221" type="typeCar" route="WE" depart="481"/>
    <vehicle id="car_222" type="typeCar" route="EW" depart="481"/>
    <vehicle id="car_223" type="typeCar" route="WE" depart="484"/>
    <vehicle id="car_224" type="typeCar" route="EW" depart="484"/>
    <vehicle id="car_225" type="typeCar" route="NS" depart="487"/>
    <vehicle id="car_226" type="typeCar" route="NS" depart="490"/>
    <vehicle id="car_227" type="typeCar" route="SN" depart="494"/>
    <vehicle id="car_228" type="typeCar" route="EW" depart="496"/>
    <vehicle id="car_229" type="typeCar" route="NS" depart="497"/>
    <vehicle id="car_230" type="typeCar" route="EW" depart="499"/>
    <vehicle id="car_231" type="typeCar" route="WE" depart="504"/>
    <vehicle id="car_232" type="typeCar" route="EW" depart="505"/>
    <vehicle id="car_233" type="typeCar" route="WE" depart="509"/>
    <vehicle id="car_234" type="typeCar" route="WE" depart="510"/>
    <vehicle id="car_235" type="typeCar" route="NS" depart="512"/>
    <vehicle id="car_236" type="typeCar" route="NS" depart="513"/>
    <vehicle id="car_237" type="typeCar" route="EW" depart="513"/>
    <vehicle id="car_238" type="typeCar" route="WE" depart="516"/>
    <vehicle id="car_239" type="typeCar" route="WE" depart="517"/>
    <vehicle id="car_240" type="typeCar" route="NS" depart="518"/>
    <vehicle id="car_241" type="typeCar" route="SN" depart="519"/>
    <vehicle id="car_242" type="typeCar" route="SN" depart="522"/>
    <vehicle id="car_243" type="typeCar" route="NS" depart="525"/>
    <vehicle id="car_244" type="typeCar" route="EW" depart="525"/>
    <vehicle id="car_245" type="typeCar" route="EW" depart="526"/>
    <vehicle id="car_246" type="typeCar" route="WE" depart="532"/>
    <vehicle id="car_247" type="typeCar" route="WE" depart="536"/>
    <vehicle id="car_248" type="typeCar" route="EW" depart="537"/>
    <vehicle id="car_249" type="typeCar" route="EW" depart="538"/>
    <vehicle id="car_250" type="typeCar" route="WE" depart="539"/>
    <vehicle id="car_251" type="typeCar" route="NS" depart="541"/>
    <vehicle id="car_252" type="typeCar" route="EW" depart="541"/>
    <vehicle id="car_253" type="typeCar" route="EW" depart="542"/>
    <vehicle id="car_254" type="typeCar" route="WE" depart="552"/>
    <vehicle id="car_255" type="typeCar" route="EW" depart="553"/>
    <vehicle id="car_256" type="typeCar" route="SN" depart="555"/>
    <vehicle id="car_257" type="typeCar" route="WE" depart="558"/>
    <vehicle id="car_258" type="typeCar" route="NS" depart="560"/>
    <vehicle id="car_259" type="typeCar" route="WE" depart="562"/>
    <vehicle id="car_260" type="typeCar" route="WE" depart="568"/>
    <vehicle id="car_261" type="typeCar" route="SN" depart="574"/>
    <vehicle id="car_262" type="typeCar" route="WE" depart="576"/>
    <vehicle id="car_263" type="typeCar" route="EW" depart="576"/>
    <vehicle id="car_264" type="typeCar" route="NS" depart="580"/>
    <vehicle id="car_265" type="typeCar" route="WE" depart="580"/>
    <vehicle id="car_266" type="typeCar" route="WE" depart="581"/>
    <vehicle id="car_267" type="typeCar" route="SN" depart="582"/>
    <vehicle id="car_268" type="typeCar" route="WE" depart="584"/>
    <vehicle id="car_269" type="typeCar" route="NS" depart="588"/>
    <vehicle id="car_270" type="typeCar" route="EW" depart="591"/>
    <vehicle id="car_271" type="typeCar" route="WE" depart="592"/>
    <vehicle id="car_272" type="typeCar" route="EW" depart="594"/>
    <vehicle id="car_273" type="typeCar" route="EW" depart="595"/>
    <vehicle id="car_274" type="typeCar" route="WE" depart="599"/>
    <vehicle id="car_275" type="typeCar" route="SN" depart="602"/>
    <vehicle id="car_276" type="typeCar" route="EW" depart="606"/>
    <vehicle id="car_277" type="typeCar" route="WE" depart="609"/>
    <vehicle id="car_278" type="typeCar" route="WE" depart="610"/>
    <vehicle id="car_279" type="typeCar" route="SN" depart="615"/>
    <vehicle id="car_280" type="typeCar" route="SN" depart="618"/>
    <vehicle id="car_281" type="typeCar" route="EW" depart="620"/>
    <vehicle id="car_282" type="typeCar" route="NS" depart="621"/>
    <vehicle id="car_283" type="typeCar" route="WE" depart="626"/>
    <vehicle id="car_284" type="typeCar" route="NS" depart="627"/>
    <vehicle id="car_285" type="typeCar" route="EW" depart="627"/>
    <vehicle id="car_286" type="typeCar" route="EW" depart="629"/>
    <vehicle id="car_287" type="typeCar" route="SN" depart="630"/>
    <vehicle id="car_288" type="typeCar" route="NS" depart="634"/>
    <vehicle id="car_289" type="typeCar" route="EW" depart="634"/>
    <vehicle id="car_290" type="typeCar" route="EW" depart="635"/>
    <vehicle id="car_291" type="typeCar" route="SN" depart="636"/>
    <vehicle id="car_292" type="typeCar" route="WE" depart="637"/>
    <vehicle id="car_293" type="typeCar" route="EW" depart="637"/>
    <vehicle id="car_294" type="typeCar" route="SN" depart="638"/>
    <vehicle id="car_295" type="typeCar" route="WE" depart="638"/>
    <vehicle id="car_296" type="typeCar" route="SN" depart="640"/>
    <vehicle id="car_297" type="typeCar" route="NS" depart="641"/>
    <vehicle id="car_298" type="typeCar" route="WE" depart="641"/>
    <vehicle id="car_299" type="typeCar" route="WE" depart="643"/>
    <vehicle id="car_300" type="typeCar" route="SN" depart="646"/>
    <vehicle id="car_301" type="typeCar" route="EW" depart="646"/>
    <vehicle id="car_302" type="typeCar" route="EW" depart="649"/>
    <vehicle id="car_303" type="typeCar" route="EW" depart="650"/>
    <vehicle id="car_304" type="typeCar" route="EW" depart="655"/>
    <vehicle id="car_305" type="typeCar" route="WE" depart="656"/>
    <vehicle id="car_306" type="typeCar" route="WE" depart="657"/>
    <vehicle id="car_307" type="typeCar" route="SN" depart="658"/>
    <vehicle id="car_308" type="typeCar" route="WE" depart="660"/>
    <vehicle id="car_309" type="typeCar" route="NS" depart="661"/>
    <vehicle id="car_310" type="typeCar" route="WE" depart="662"/>
    <vehicle id="car_311" type="typeCar" route="EW" depart="670"/>
    <vehicle id="car_312" type="typeCar" route="WE" depart="675"/>
    <vehicle id="car_313" type="typeCar" route="EW" depart="676"/>
    <vehicle id="car_314" type="typeCar" route="EW" depart="680"/>
    <vehicle id="car_315" type="typeCar" route="EW" depart="683"/>
    <vehicle id="car_316" type="typeCar" route="EW" depart="684"/>
    <vehicle id="car_317" type="typeCar" route="WE" depart="688"/>
    <vehicle id="car_318" type="typeCar" route="WE" depart="690"/>
    <vehicle id="car_319" type="typeCar" route="NS" depart="691"/>
    <vehicle id="car_320" type="typeCar" route="WE" depart="692"/>
    <vehicle id="car_321" type="typeCar" route="SN" depart="698"/>
    <vehicle id="car_322" type="typeCar" route="WE" depart="701"/>
    <vehicle id="car_323" type="typeCar" route="WE" depart="707"/>
    <vehicle id="car_324" type="typeCar" route="NS" depart="710"/>
    <vehicle id="car_325" type="typeCar" route="WE" depart="710"/>
    <vehicle id="car_326" type="typeCar" route="WE" depart="711"/>
    <vehicle id="car_327" type="typeCar" route="NS" depart="714"/>
    <vehicle id="car_328" type="typeCar" route="WE" depart="715"/>
    <vehicle id="car_329" type="typeCar" route="WE" depart="718"/>
    <vehicle id="car_330" type="typeCar" route="NS" depart="719"/>
    <vehicle id="car_331" type="typeCar" route="WE" depart="720"/>
    <vehicle id="car_332" type="typeCar" route="EW" depart="720"/>
    <vehicle id="car_333" type="typeCar" route="EW" depart="721"/>
    <vehicle id="car_334" type="typeCar" route="EW" depart="723"/>
    <vehicle id="car_335" type="typeCar" route="SN" depart="725"/>
    <vehicle id="car_336" type="typeCar" route="NS" depart="729"/>
    <vehicle id="car_337" type="typeCar" route="NS" depart="731"/>
    <vehicle id="car_338" type="typeCar" route="EW" depart="732"/>
    <vehicle id="car_339" type="typeCar" route="WE" depart="739"/>
    <vehicle id="car_340" type="typeCar" route="NS" depart="744"/>
    <vehicle id="car_341" type="typeCar" route="WE" depart="749"/>
    <vehicle id="car_342" type="typeCar" route="EW" depart="750"/>
    <vehicle id="car_343" type="typeCar" route="NS" depart="752"/>
    <vehicle id="car_344" type="typeCar" route="EW" depart="752"/>
    <vehicle id="car_345" type="typeCar" route="EW" depart="753"/>
    <vehicle id="car_346" type="typeCar" route="NS" depart="759"/>
    <vehicle id="car_347" type="typeCar" route="EW" depart="765"/>
    <vehicle id="car_348" type="typeCar" route="WE" depart="781"/>
    <vehicle id="car_349" type="typeCar" route="WE" depart="782"/>
    <vehicle id="car_350" type="typeCar" route="NS" depart="784"/>
    <vehicle id="car_351" type="typeCar" route="EW" depart="786"/>
    <vehicle id="car_352" type="typeCar" route="EW" depart="787"/>
    <vehicle id="car_353" type="typeCar" route="SN" depart="789"/>
    <vehicle id="car_354" type="typeCar" route="WE" depart="789"/>
    <vehicle id="car_355" type="typeCar" route="WE" depart="790"/>
    <vehicle id="car_356" type="typeCar" route="EW" depart="795"/>
    <vehicle id="car_357" type="typeCar" route="EW" depart="796"/>
    <vehicle id="car_358" type="typeCar" route="WE" depart="800"/>
    <vehicle id="car_359" type="typeCar" route="WE" depart="801"/>
    <vehicle id="car_360" type="typeCar" route="EW" depart="807"/>
    <vehicle id="car_361" type="typeCar" route="WE" depart="810"/>
    <vehicle id="car_362" type="typeCar" route="WE" depart="811"/>
    <vehicle id="car_363" type="typeCar" route="EW" depart="811"/>
    <vehicle id="car_364" type="typeCar" route="NS" depart="812"/>
    <vehicle id="car_365" type="typeCar" route="EW" depart="812"/>
    <vehicle id="car_366" type="typeCar" route="EW" depart="813"/>
    <vehicle id="car_367" type="typeCar" route="EW" depart="815"/>
    <vehicle id="car_368" type="typeCar" route="EW" depart="816"/>
    <vehicle id="car_369" type="typeCar" route="SN" depart="817"/>
    <vehicle id="car_370" type="typeCar" route="EW" depart="818"/>
    <vehicle id="car_371" type="typeCar" route="NS" depart="820"/>
    <vehicle id="car_372" type="typeCar" route="WE" depart="820"/>
    <vehicle id="car_373" type="typeCar" route="WE" depart="822"/>
    <vehicle id="car_374" type="typeCar" route="EW" depart="823"/>
    <vehicle id="car_375" type="typeCar" route="EW" depart="826"/>
    <vehicle id="car_376" type="typeCar" route="WE" depart="827"/>
    <vehicle id="car_377" type="typeCar" route="NS" depart="829"/>
    <vehicle id="car_378" type="typeCar" route="WE" depart="832"/>
    <vehicle id="car_379" type="typeCar" route="SN" depart="840"/>
    <vehicle id="car_380" type="typeCar" route="NS" depart="841"/>
    <vehicle id="car_381" type="typeCar" route="EW" depart="844"/>
    <vehicle id="car_382" type="typeCar" route="EW" depart="852"/>
    <vehicle id="car_383" type="typeCar" route="NS" depart="853"/>
    <vehicle id="car_384" type="typeCar" route="SN" depart="854"/>
    <vehicle id="car_385" type="typeCar" route="NS" depart="857"/>
    <vehicle id="car_386" type="typeCar" route="WE" depart="858"/>
    <vehicle id="car_387" type="typeCar" route="EW" depart="862"/>
    <vehicle id="car_388" type="typeCar" route="SN" depart="864"/>
    <vehicle id="car_389" type="typeCar" route="WE" depart="867"/>
    <vehicle id="car_390" type="typeCar" route="EW" depart="868"/>
    <vehicle id="car_391" type="typeCar" route="NS" depart="869"/>
    <vehicle id="car_392" type="typeCar" route="EW" depart="869"/>
    <vehicle id="car_393" type="typeCar" route="SN" depart="872"/>
    <vehicle id="car_394" type="typeCar" route="WE" depart="875"/>
    <vehicle id="car_395" type="typeCar" route="NS" depart="876"/>
    <vehicle id="car_396" type="typeCar" route="NS" depart="877"/>
    <vehicle id="car_397" type="typeCar" route="NS" depart="879"/>
    <vehicle id="car_398" type="typeCar" route="WE" depart="880"/>
    <vehicle id="car_399" type="typeCar" route="NS" depart="884"/>
    <vehicle id="car_400" type="typeCar" route="NS" depart="888"/>
    <vehicle id="car_401" type="typeCar" route="NS" depart="890"/>
    <vehicle id="car_402" type="typeCar" route="WE" depart="890"/>
    <vehicle id="car_403" type="typeCar" route="NS" depart="892"/>
    <vehicle id="car_404" type="typeCar" route="EW" depart="892"/>
    <vehicle id="car_405" type="typeCar" route="NS" depart="896"/>
    <vehicle id="car_406" type="typeCar" route="WE" depart="899"/>
    <vehicle id="car_407" type="typeCar" route="NS" depart="901"/>
    <vehicle id="car_408" type="typeCar" route="NS" depart="905"/>
    <vehicle id="car_409" type="typeCar" route="WE" depart="908"/>
    <vehicle id="car_410" type="typeCar" route="SN" depart="909"/>
    <vehicle id="car_411" type="typeCar" route="NS" depart="910"/>
    <vehicle id="car_412" type="typeCar" route="SN" depart="910"/>
    <vehicle id="car_413" type="typeCar" route="NS" depart="914"/>
    <vehicle id="car_414" type="typeCar" route="WE" depart="919"/>
    <vehicle id="car_415" type="typeCar" route="EW" depart="919"/>
    <vehicle id="car_416" type="typeCar" route="WE" depart="921"/>
    <vehicle id="car_417" type="typeCar" route="EW" depart="921"/>
    <vehicle id="car_418" type="typeCar" route="EW" depart="922"/>
    <vehicle id="car_419" type="typeCar" route="EW" depart="928"/>
    <vehicle id="car_420" type="typeCar" route="EW" depart="931"/>
    <vehicle id="car_421" type="typeCar" route="WE" depart="932"/>
    <vehicle id="car_422" type="typeCar" route="WE" depart="933"/>
    <vehicle id="car_423" type="typeCar" route="NS" depart="934"/>
    <vehicle id="car_424" type="typeCar" route="EW" depart="935"/>
    <vehicle id="car_425" type="typeCar" route="WE" depart="940"/>
    <vehicle id="car_426" type="typeCar" route="SN" depart="946"/>
    <vehicle id="car_427" type="typeCar" route="WE" depart="948"/>
    <vehicle id="car_428" type="typeCar" route="SN" depart="950"/>
    <vehicle id="car_429" type="typeCar" route="NS" depart="953"/>
    <vehicle id="car_430" type="typeCar" route="NS" depart="955"/>
    <vehicle id="car_431" type="typeCar" route="EW" depart="955"/>
    <vehicle id="car_432" type="typeCar" route="SN" depart="956"/>
    <vehicle id="car_433" type="typeCar" route="NS" depart="957"/>
    <vehicle id="car_434" type="typeCar" route="EW" depart="960"/>
    <vehicle id="car_435" type="typeCar" route="NS" depart="961"/>
    <vehicle id="car_436" type="typeCar" route="WE" depart="962"/>
    <vehicle id="car_437" type="typeCar" route="NS" depart="963"/>
    <vehicle id="car_438" type="typeCar" route="EW" depart="963"/>
    <vehicle id="car_439" type="typeCar" route="NS" depart="966"/>
    <vehicle id="car_440" type="typeCar" route="EW" depart="970"/>
    <vehicle id="car_441" type="typeCar" route="EW" depart="975"/>
    <vehicle id="car_442" type="typeCar" route="EW" depart="979"/>
    <vehicle id="car_443" type="typeCar" route="WE" depart="983"/>
    <vehicle id="car_444" type="typeCar" route="EW" depart="986"/>