<routes>
        <vType id="typeCar" accel="0.8" decel="4.5" sigma="0.5" length="5" minGap="2.5" maxSpeed="16.67" guiShape="passenger"/>

        <route id="NS" edges="n2A A2s" />
        <route id="WE" edges="w2A A2e" />
        <route id="SN" edges="s2A A2n" />
        <route id="EW" edges="e2A A2w" />
    <vehicle id="car_0" type="typeCar" route="NS" depart="0"/>
    <vehicle id="car_1" type="typeCar" route="NS" depart="6"/>
    <vehicle id="car_2" type="typeCar" route="WE" depart="7"/>
    <vehicle id="car_3" type="typeCar" route="EW" depart="12"/>
    <vehicle id="car_4" type="typeCar" route="SN" depart="16"/>
    <vehicle id="car_5" type="typeCar" route="NS" depart="18"/>
    <vehicle id="car_6" type="typeCar" route="NS" depart="22"/>
    <vehicle id="car_7" type="typeCar" route="EW" depart="22"/>
    <vehicle id="car_8" type="typeCar" route="EW" depart="34"/>
    <vehicle id="car_9" type="typeCar" route="EW" depart="40"/>
    <vehicle id="car_10" type="typeCar" route="WE" depart="42"/>
    <vehicle id="car_11" type="typeCar" route="NS" depart="48"/>
    <vehicle id="car_12" type="typeCar" route="EW" depart="48"/>
    <vehicle id="car_13" type="typeCar" route="EW" depart="51"/>
    <vehicle id="car_14" type="typeCar" route="EW" depart="58"/>
    <vehicle id="car_15" type="typeCar" route="NS" depart="60"/>
    <vehicle id="car_16" type="typeCar" route="WE" depart="60"/>
    <vehicle id="car_17" type="typeCar" route="NS" depart="61"/>
    <vehicle id="car_18" type="typeCar" route="NS" depart="67"/>
    <vehicle id="car_19" type="typeCar" route="EW" depart="68"/>
    <vehicle id="car_20" type="typeCar" route="WE" depart="69"/>
    <vehicle id="car_21" type="typeCar" route="WE" depart="71"/>
    <vehicle id="car_22" type="typeCar" route="EW" depart="71"/>
    <vehicle id="car_23" type="typeCar" route="WE" depart="73"/>
    <vehicle id="car_24" type="typeCar" route="WE" depart="74"/>
    <vehicle id="car_25" type="typeCar" route="WE" depart="76"/>
    <vehicle id="car_26" type="typeCar" route="EW" depart="76"/>
    <vehicle id="car_27" type="typeCar" route="EW" depart="77"/>
    <vehicle id="car_28" type="typeCar" route="EW" depart="78"/>
    <vehicle id="car_29" type="typeCar" route="WE" depart="80"/>
    <vehicle id="car_30" type="typeCar" route="NS" depart="81"/>
    <vehicle id="car_31" type="typeCar" route="WE" depart="82"/>
    <vehicle id="car_32" type="typeCar" route="EW" depart="83"/>
    <vehicle id="car_33" type="typeCar" route="EW" depart="85"/>
    <vehicle id="car_34" type="typeCar" route="EW" depart="87"/>
    <vehicle id="car_35" type="typeCar" route="EW" depart="90"/>
    <vehicle id="car_36" type="typeCar" route="SN" depart="93"/>
    <vehicle id="car_37" type="typeCar" route="EW" depart="95"/>
    <vehicle id="car_38" type="typeCar" route="EW" depart="101"/>
    <vehicle id="car_39" type="typeCar" route="EW" depart="106"/>
    <vehicle id="car_40" type="typeCar" route="EW" depart="108"/>
    <vehicle id="car_41" type="typeCar" route="EW" depart="109"/>
    <vehicle id="car_42" type="typeCar" route="SN" depart="111"/>
    <vehicle id="car_43" type="typeCar" route="NS" depart="112"/>
    <vehicle id="car_44" type="typeCar" route="WE" depart="113"/>
    <vehicle id="car_45" type="typeCar" route="NS" depart="116"/>
    <vehicle id="car_46" type="typeCar" route="SN" depart="116"/>
    <vehicle id="car_47" type="typeCar" route="NS" depart="118"/>
    <vehicle id="car_48" type="typeCar" route="WE" depart="118"/>
    <vehicle id="car_49" type="typeCar" route="EW" depart="118"/>
    <vehicle id="car_50" type="typeCar" route="WE" depart="120"/>
    <vehicle id="car_51" type="typeCar" route="EW" depart="125"/>
    <vehicle id="car_52" type="typeCar" route="NS" depart="127"/>
    <vehicle id="car_53" type="typeCar" route="WE" depart="127"/>
    <vehicle id="car_54" type="typeCar" route="WE" depart="131"/>
    <vehicle id="car_55" type="typeCar" route="WE" depart="137"/>
    <vehicle id="car_56" type="typeCar" route="EW" depart="141"/>
    <vehicle id="car_57" type="typeCar" route="WE" depart="142"/>
    <vehicle id="car_58" type="typeCar" route="EW" depart="143"/>
    <vehicle id="car_59" type="typeCar" route="WE" depart="147"/>
    <vehicle id="car_60" type="typeCar" route="WE" depart="150"/>
    <vehicle id="car_61" type="typeCar" route="SN" depart="156"/>
    <vehicle id="car_62" type="typeCar" route="EW" depart="158"/>
    <vehicle id="car_63" type="typeCar" route="NS" depart="159"/>
    <vehicle id="car_64" type="typeCar" route="NS" depart="161"/>
    <vehicle id="car_65" type="typeCar" route="EW" depart="165"/>
    <vehicle id="car_66" type="typeCar" route="NS" depart="168"/>
    <vehicle id="car_67" type="typeCar" route="EW" depart="171"/>
    <vehicle id="car_68" type="typeCar" route="NS" depart="175"/>
    <vehicle id="car_69" type="typeCar" route="WE" depart="176"/>
    <vehicle id="car_70" type="typeCar" route="NS" depart="178"/>
    <vehicle id="car_71" type="typeCar" route="EW" depart="178"/>
    <vehicle id="car_72" type="typeCar" route="WE" depart="180"/>
    <vehicle id="car_73" type="typeCar" route="EW" depart="180"/>
    <vehicle id="car_74" type="typeCar" route="EW" depart="184"/>
    <vehicle id="car_75" type="typeCar" route="NS" depart="186"/>
    <vehicle id="car_76" type="typeCar" route="SN" depart="187"/>
    <vehicle id="car_77" type="typeCar" route="EW" depart="189"/>
    <vehicle id="car_78" type="typeCar" route="WE" depart="198"/>
    <vehicle id="car_79" type="typeCar" route="NS" depart="199"/>
    <vehicle id="car_80" type="typeCar" route="EW" depart="200"/>
    <vehicle id="car_81" type="typeCar" route="NS" depart="204"/>
    <vehicle id="car_82" type="typeCar" route="SN" depart="207"/>
    <vehicle id="car_83" type="typeCar" route="NS" depart="208"/>
    <vehicle id="car_84" type="typeCar" route="EW" depart="209"/>
    <vehicle id="car_85" type="typeCar" route="EW" depart="213"/>
    <vehicle id="car_86" type="typeCar" route="WE" depart="215"/>
    <vehicle id="car_87" type="typeCar" route="NS" depart="217"/>
    <vehicle id="car_88" type="typeCar" route="WE" depart="217"/>
    <vehicle id="car_89" type="typeCar" route="SN" depart="218"/>
    <vehicle id="car_90" type="typeCar" route="WE" depart="218"/>
    <vehicle id="car_91" type="typeCar" route="SN" depart="222"/>
    <vehicle id="car_92" type="typeCar" route="EW" depart="223"/>
    <vehicle id="car_93" type="typeCar" route="WE" depart="232"/>
    <vehicle id="car_94" type="typeCar" route="EW" depart="235"/>
    <vehicle id="car_95" type="typeCar" route="SN" depart="236"/>
    <vehicle id="car_96" type="typeCar" route="NS" depart="237"/>
    <vehicle id="car_97" type="typeCar" route="WE" depart="237"/>
    <vehicle id="car_98" type="typeCar" route="EW" depart="240"/>
    <vehicle id="car_99" type="typeCar" route="WE" depart="241"/>
    <vehicle id="car_100" type="typeCar" route="WE" depart="242"/>
    <vehicle id="car_101" type="typeCar" route="NS" depart="243"/>
    <vehicle id="car_102" type="typeCar" route="NS" depart="245"/>
    <vehicle id="car_103" type="typeCar" route="WE" depart="247"/>
    <vehicle id="car_104" type="typeCar" route="EW" depart="247"/>
    <vehicle id="car_105" type="typeCar" route="NS" depart="248"/>
    <vehicle id="car_106" type="typeCar" route="WE" depart="248"/>
    <vehicle id="car_107" type="typeCar" route="WE" depart="249"/>
    <vehicle id="car_108" type="typeCar" route="EW" depart="249"/>
    <vehicle id="car_109" type="typeCar" route="EW" depart="250"/>
    <vehicle id="car_110" type="typeCar" route="SN" depart="251"/>
    <vehicle id="car_111" type="typeCar" route="WE" depart="252"/>
    <vehicle id="car_112" type="typeCar" route="WE" depart="253"/>
    <vehicle id="car_113" type="typeCar" route="EW" depart="254"/>
    <vehicle id="car_114" type="typeCar" route="WE" depart="256"/>
    <vehicle id="car_115" type="typeCar" route="SN" depart="258"/>
    <vehicle id="car_116" type="typeCar" route="SN" depart="259"/>
    <vehicle id="car_117" type="typeCar" route="EW" depart="266"/>
    <vehicle id="car_118" type="typeCar" route="NS" depart="268"/>
    <vehicle id="car_119" type="typeCar" route="EW" depart="268"/>
    <vehicle id="car_120" type="typeCar" route="WE" depart="272"/>
    <vehicle id="car_121" type="typeCar" route="EW" depart="272"/>
    <vehicle id="car_122" type="typeCar" route="EW" depart="277"/>
    <vehicle id="car_123" type="typeCar" route="EW" depart="278"/>
    <vehicle id="car_124" type="typeCar" route="SN" depart="280"/>
    <vehicle id="car_125" type="typeCar" route="SN" depart="284"/>
    <vehicle id="car_126" type="typeCar" route="WE" depart="286"/>
    <vehicle id="car_127" type="typeCar" route="EW" depart="288"/>
    <vehicle id="car_128" type="typeCar" route="NS" depart="289"/>
    <vehicle id="car_129" type="typeCar" route="WE" depart="289"/>
    <vehicle id="car_130" type="typeCar" route="EW" depart="290"/>
    <vehicle id="car_131" type="typeCar" route="WE" depart="291"/>
    <vehicle id="car_132" type="typeCar" route="EW" depart="294"/>
    <vehicle id="car_133" type="typeCar" route="EW" depart="299"/>
    <vehicle id="car_134" type="typeCar" route="WE" depart="300"/>
    <vehicle id="car_135" type="typeCar" route="SN" depart="305"/>
    <vehicle id="car_136" type="typeCar" route="WE" depart="306"/>
    <vehicle id="car_137" type="typeCar" route="WE" depart="308"/>
    <vehicle id="car_138" type="typeCar" route="WE" depart="310"/>
    <vehicle id="car_139" type="typeCar" route="EW" depart="312"/>
    <vehicle id="car_140" type="typeCar" route="WE" depart="316"/>
    <vehicle id="car_141" type="typeCar" route="EW" depart="317"/>
    <vehicle id="car_142" type="typeCar" route="NS" depart="318"/>
    <vehicle id="car_143" type="typeCar" route="WE" depart="320"/>
    <vehicle id="car_144" type="typeCar" route="WE" depart="322"/>
    <vehicle id="car_145" type="typeCar" route="EW" depart="326"/>
    <vehicle id="car_146" type="typeCar" route="EW" depart="327"/>
    <vehicle id="car_147" type="typeCar" route="NS" depart="329"/>
    <vehicle id="car_148" type="typeCar" route="WE" depart="329"/>
    <vehicle id="car_149" type="typeCar" route="NS" depart="330"/>
    <vehicle id="car_150" type="typeCar" route="WE" depart="335"/>
    <vehicle id="car_151" type="typeCar" route="WE" depart="336"/>
    <vehicle id="car_152" type="typeCar" route="NS" depart="337"/>
    <vehicle id="car_153" type="typeCar" route="WE" depart="341"/>
    <vehicle id="car_154" type="typeCar" route="NS" depart="342"/>
    <vehicle id="car_155" type="typeCar" route="WE" depart="344"/>
    <vehicle id="car_156" type="typeCar" route="NS" depart="348"/>
    <vehicle id="car_157" type="typeCar" route="NS" depart="351"/>
    <vehicle id="car_158" type="typeCar" route="EW" depart="358"/>
    <vehicle id="car_159" type="typeCar" route="SN" depart="361"/>
    <vehicle id="car_160" type="typeCar" route="NS" depart="362"/>
    <vehicle id="car_161" type="typeCar" route="SN" depart="364"/>
    <vehicle id="car_162" type="typeCar" route="WE" depart="364"/>
    <vehicle id="car_163" type="typeCar" route="EW" depart="366"/>
    <vehicle id="car_164" type="typeCar" route="WE" depart="367"/>
    <vehicle id="car_165" type="typeCar" route="WE" depart="370"/>
    <vehicle id="car_166" type="typeCar" route="EW" depart="373"/>
    <vehicle id="car_167" type="typeCar" route="WE" depart="377"/>
    <vehicle id="car_168" type="typeCar" route="EW" depart="380"/>
    <vehicle id="car_169" type="typeCar" route="SN" depart="381"/>
    <vehicle id="car_170" type="typeCar" route="NS" depart="382"/>
    <vehicle id="car_171" type="typeCar" route="WE" depart="385"/>
    <vehicle id="car_172" type="typeCar" route="EW" depart="386"/>
    <vehicle id="car_173" type="typeCar" route="NS" depart="391"/>
    <vehicle id="car_174" type="typeCar" route="WE" depart="392"/>
    <vehicle id="car_175" type="typeCar" route="SN" depart="393"/>
    <vehicle id="car_176" type="typeCar" route="EW" depart="393"/>
    <vehicle id="car_177" type="typeCar" route="SN" depart="395"/>
    <vehicle id="car_178" type="typeCar" route="EW" depart="396"/>
    <vehicle id="car_179" type="typeCar" route="NS" depart="397"/>
    <vehicle id="car_180" type="typeCar" route="SN" depart="398"/>
    <vehicle id="car_181" type="typeCar" route="NS" depart="401"/>
    <vehicle id="car_182" type="typeCar" route="WE" depart="402"/>
    <vehicle id="car_183" type="typeCar" route="SN" depart="404"/>
    <vehicle id="car_184" type="typeCar" route="NS" depart="412"/>
    <vehicle id="car_185" type="typeCar" route="EW" depart="414"/>
    <vehicle id="car_186" type="typeCar" route="SN" depart="415"/>
    <vehicle id="car_187" type="typeCar" route="NS" depart="419"/>
    <vehicle id="car_188" type="typeCar" route="WE" depart="422"/>
    <vehicle id="car_189" type="typeCar" route="WE" depart="424"/>
    <vehicle id="car_190" type="typeCar" route="WE" depart="426"/>
    <vehicle id="car_191" type="typeCar" route="EW" depart="426"/>
    <vehicle id="car_192" type="typeCar" route="NS" depart="427"/>
    <vehicle id="car_193" type="typeCar" route="NS" depart="433"/>
    <vehicle id="car_194" type="typeCar" route="WE" depart="433"/>
    <vehicle id="car_195" type="typeCar" route="SN" depart="435"/>
    <vehicle id="car_196" type="typeCar" route="EW" depart="436"/>
    <vehicle id="car_197" type="typeCar" route="NS" depart="446"/>
    <vehicle id="car_198" type="typeCar" route="WE" depart="447"/>
    <vehicle id="car_199" type="typeCar" route="SN" depart="448"/>
    <vehicle id="car_200" type="typeCar" route="EW" depart="455"/>
    <vehicle id="car_201" type="typeCar" route="EW" depart="456"/>
    <vehicle id="car_202" type="typeCar" route="WE" depart="459"/>
    <vehicle id="car_203" type="typeCar" route="WE" depart="460"/>
    <vehicle id="car_204" type="typeCar" route="EW" depart="460"/>
    <vehicle id="car_205" type="typeCar" route="WE" depart="461"/>
    <vehicle id="car_206" type="typeCar" route="WE" depart="464"/>
    <vehicle id="car_207" type="typeCar" route="NS" depart="467"/>
    <vehicle id="car_208" type="typeCar" route="SN" depart="470"/>
    <vehicle id="car_209" type="typeCar" route="EW" depart="470"/>
    <vehicle id="car_210" type="typeCar" route="EW" depart="472"/>
    <vehicle id="car_211" type="typeCar" route="NS" depart="475"/>
    <vehicle id="car_212" type="typeCar" route="WE" depart="479"/>
    <vehicle id="car_213" type="typeCar" route="EW" depart="481"/>
    <vehicle id="car_214" type="typeCar" route="EW" depart="483"/>
    <vehicle id="car_215" type="typeCar" route="WE" depart="484"/>
    <vehicle id="car_216" type="typeCar" route="EW" depart="485"/>
    <vehicle id="car_217" type="typeCar" route="WE" depart="487"/>
    <vehicle id="car_218" type="typeCar" route="NS" depart="490"/>
    <vehicle id="car_219" type="typeCar" route="EW" depart="492"/>
    <vehicle id="car_220" type="typeCar" route="WE" depart="495"/>
    <vehicle id="car_221" type="typeCar" route="EW" depart="500"/>
    <vehicle id="car_222" type="typeCar" route="EW" depart="506"/>
    <vehicle id="car_223" type="typeCar" route="WE" depart="508"/>
    <vehicle id="car_224" type="typeCar" route="EW" depart="510"/>
    <vehicle id="car_225" type="typeCar" route="EW" depart="512"/>
    <vehicle id="car_226" type="typeCar" route="WE" depart="526"/>
    <vehicle id="car_227" type="typeCar" route="EW" depart="526"/>
    <vehicle id="car_228" type="typeCar" route="SN" depart="529"/>
    <vehicle id="car_229" type="typeCar" route="EW" depart="531"/>
    <vehicle id="car_230" type="typeCar" route="WE" depart="533"/>
    <vehicle id="car_231" type="typeCar" route="EW" depart="533"/>
    <vehicle id="car_232" type="typeCar" route="NS" depart="534"/>
    <vehicle id="car_233" type="typeCar" route="WE" depart="535"/>
    <vehicle id="car_234" type="typeCar" route="WE" depart="536"/>
    <vehicle id="car_235" type="typeCar" route="EW" depart="537"/>
    <vehicle id="car_236" type="typeCar" route="WE" depart="539"/>
    <vehicle id="car_237" type="typeCar" route="EW" depart="543"/>
    <vehicle id="car_238" type="typeCar" route="NS" depart="547"/>
    <vehicle id="car_239" type="typeCar" route="WE" depart="550"/>
    <vehicle id="car_240" type="typeCar" route="NS" depart="552"/>
    <vehicle id="car_241" type="typeCar" route="EW" depart="552"/>
    <vehicle id="car_242" type="typeCar" route="WE" depart="553"/>
    <vehicle id="car_243" type="typeCar" route="NS" depart="555"/>
    <vehicle id="car_244" type="typeCar" route="WE" depart="555"/>
    <vehicle id="car_245" type="typeCar" route="NS" depart="556"/>
    <vehicle id="car_246" type="typeCar" route="WE" depart="556"/>
    <vehicle id="car_247" type="typeCar" route="NS" depart="557"/>
    <vehicle id="car_248" type="typeCar" route="WE" depart="558"/>
    <vehicle id="car_249" type="typeCar" route="WE" depart="563"/>
    <vehicle id="car_250" type="typeCar" route="EW" depart="563"/>
    <vehicle id="car_251" type="typeCar" route="NS" depart="565"/>
    <vehicle id="car_252" type="typeCar" route="WE" depart="568"/>
    <vehicle id="car_253" type="typeCar" route="SN" depart="570"/>
    <vehicle id="car_254" type="typeCar" route="SN" depart="572"/>
    <vehicle id="car_255" type="typeCar" route="WE" depart="575"/>
    <vehicle id="car_256" type="typeCar" route="WE" depart="576"/>
    <vehicle id="car_257" type="typeCar" route="EW" depart="579"/>
    <vehicle id="car_258" type="typeCar" route="NS" depart="580"/>
    <vehicle id="car_259" type="typeCar" route="SN" depart="580"/>
    <vehicle id="car_260" type="typeCar" route="SN" depart="585"/>
    <vehicle id="car_261" type="typeCar" route="WE" depart="585"/>
    <vehicle id="car_262" type="typeCar" route="EW" depart="585"/>
    <vehicle id="car_263" type="typeCar" route="EW" depart="587"/>
    <vehicle id="car_264" type="typeCar" route="WE" depart="588"/>
    <vehicle id="car_265" type="typeCar" route="EW" depart="592"/>
    <vehicle id="car_266" type="typeCar" route="EW" depart="593"/>
    <vehicle id="car_267" type="typeCar" route="NS" depart="594"/>
    <vehicle id="car_268" type="typeCar" route="EW" depart="594"/>
    <vehicle id="car_269" type="typeCar" route="SN" depart="595"/>
    <vehicle id="car_270" type="typeCar" route="EW" depart="595"/>
    <vehicle id="car_271" type="typeCar" route="WE" depart="602"/>
    <vehicle id="car_272" type="typeCar" route="NS" depart="606"/>
    <vehicle id="car_273" type="typeCar" route="WE" depart="607"/>
    <vehicle id="car_274" type="typeCar" route="NS" depart="608"/>
    <vehicle id="car_275" type="typeCar" route="NS" depart="610"/>
    <vehicle id="car_276" type="typeCar" route="WE" depart="615"/>
    <vehicle id="car_277" type="typeCar" route="SN" depart="616"/>
    <vehicle id="car_278" type="typeCar" route="EW" depart="617"/>
    <vehicle id="car_279" type="typeCar" route="SN" depart="618"/>
    <vehicle id="car_280" type="typeCar" route="EW" depart="619"/>
    <vehicle id="car_281" type="typeCar" route="EW" depart="623"/>
    <vehicle id="car_282" type="typeCar" route="NS" depart="624"/>
    <vehicle id="car_283" type="typeCar" route="WE" depart="624"/>
    <vehicle id="car_284" type="typeCar" route="EW" depart="627"/>
    <vehicle id="car_285" type="typeCar" route="EW" depart="628"/>
    <vehicle id="car_286" type="typeCar" route="EW" depart="631"/>
    <vehicle id="car_287" type="typeCar" route="NS" depart="632"/>
    <vehicle id="car_288" type="typeCar" route="NS" depart="634"/>
    <vehicle id="car_289" type="typeCar" route="NS" depart="636"/>
    <vehicle id="car_290" type="typeCar" route="WE" depart="640"/>
    <vehicle id="car_291" type="typeCar" route="SN" depart="643"/>
    <vehicle id="car_292" type="typeCar" route="NS" depart="645"/>
    <vehicle id="car_293" type="typeCar" route="WE" depart="647"/>
    <vehicle id="car_294" type="typeCar" route="WE" depart="648"/>
    <vehicle id="car_295" type="typeCar" route="WE" depart="653"/>
    <vehicle id="car_296" type="typeCar" route="EW" depart="653"/>
    <vehicle id="car_297" type="typeCar" route="EW" depart="655"/>
    <vehicle id="car_298" type="typeCar" route="NS" depart="657"/>
    <vehicle id="car_299" type="typeCar" route="WE" depart="657"/>
    <vehicle id="car_300" type="typeCar" route="EW" depart="661"/>
    <vehicle id="car_301" type="typeCar" route="WE" depart="667"/>
    <vehicle id="car_302" type="typeCar" route="EW" depart="668"/>
    <vehicle id="car_303" type="typeCar" route="NS" depart="674"/>
    <vehicle id="car_304" type="typeCar" route="NS" depart="676"/>
    <vehicle id="car_305" type="typeCar" route="SN" depart="677"/>
    <vehicle id="car_306" type="typeCar" route="WE" depart="681"/>
    <vehicle id="car_307" type="typeCar" route="WE" depart="683"/>
    <vehicle id="car_308" type="typeCar" route="EW" depart="686"/>
    <vehicle id="car_309" type="typeCar" route="EW" depart="687"/>
    <vehicle id="car_310" type="typeCar" route="SN" depart="689"/>
    <vehicle id="car_311" type="typeCar" route="WE" depart="689"/>
    <vehicle id="car_312" type="typeCar" route="NS" depart="690"/>
    <vehicle id="car_313" type="typeCar" route="NS" depart="693"/>
    <vehicle id="car_314" type="typeCar" route="EW" depart="696"/>
    <vehicle id="car_315" type="typeCar" route="WE" depart="697"/>
    <vehicle id="car_316" type="typeCar" route="SN" depart="698"/>
    <vehicle id="car_317" type="typeCar" route="WE" depart="698"/>
    <vehicle id="car_318" type="typeCar" route="NS" depart="702"/>
    <vehicle id="car_319" type="typeCar" route="EW" depart="703"/>
    <vehicle id="car_320" type="typeCar" route="SN" depart="704"/>
    <vehicle id="car_321" type="typeCar" route="SN" depart="708"/>
    <vehicle id="car_322" type="typeCar" route="NS" depart="709"/>
    <vehicle id="car_323" type="typeCar" route="SN" depart="709"/>
    <vehicle id="car_324" type="typeCar" route="SN" depart="712"/>
    <vehicle id="car_325" type="typeCar" route="EW" depart="712"/>
    <vehicle id="car_326" type="typeCar" route="EW" depart="714"/>
    <vehicle id="car_327" type="typeCar" route="NS" depart="717"/>
    <vehicle id="car_328" type="typeCar" route="WE" depart="717"/>
    <vehicle id="car_329" type="typeCar" route="EW" depart="718"/>
    <vehicle id="car_330" type="typeCar" route="WE" depart="720"/>
    <vehicle id="car_331" type="typeCar" route="WE" depart="726"/>
    <vehicle id="car_332" type="typeCar" route="EW" depart="727"/>
    <vehicle id="car_333" type="typeCar" route="WE" depart="729"/>
    <vehicle id="car_334" type="typeCar" route="EW" depart="729"/>
    <vehicle id="car_335" type="typeCar" route="NS" depart="730"/>
    <vehicle id="car_336" type="typeCar" route="EW" depart="730"/>
    <vehicle id="car_337" type="typeCar" route="SN" depart="735"/>
    <vehicle id="car_338" type="typeCar" route="WE" depart="735"/>
    <vehicle id="car_339" type="typeCar" route="WE" depart="736"/>
    <vehicle id="car_340" type="typeCar" route="EW" depart="739"/>
    <vehicle id="car_341" type="typeCar" route="NS" depart="750"/>
    <vehicle id="car_342" type="typeCar" route="SN" depart="753"/>
    <vehicle id="car_343" type="typeCar" route="WE" depart="753"/>
    <vehicle id="car_344" type="typeCar" route="EW" depart="758"/>
    <vehicle id="car_345" type="typeCar" route="EW" depart="759"/>
    <vehicle id="car_346" type="typeCar" route="NS" depart="761"/>
    <vehicle id="car_347" type="typeCar" route="NS" depart="762"/>
    <vehicle id="car_348" type="typeCar" route="EW" depart="764"/>
    <vehicle id="car_349" type="typeCar" route="EW" depart="766"/>
    <vehicle id="car_350" type="typeCar" route="SN" depart="771"/>
    <vehicle id="car_351" type="typeCar" route="WE" depart="771"/>
    <vehicle id="car_352" type="typeCar" route="SN" depart="772"/>
    <vehicle id="car_353" type="typeCar" route="EW" depart="772"/>
    <vehicle id="car_354" type="typeCar" route="WE" depart="780"/>
    <vehicle id="car_355" type="typeCar" route="WE" depart="782"/>
    <vehicle id="car_356" type="typeCar" route="NS" depart="788"/>
    <vehicle id="car_357" type="typeCar" route="EW" depart="788"/>
    <vehicle id="car_358" type="typeCar" route="WE" depart="790"/>
    <vehicle id="car_359" type="typeCar" route="EW" depart="790"/>
    <vehicle id="car_360" type="typeCar" route="EW" depart="791"/>
    <vehicle id="car_361" type="typeCar" route="SN" depart="792"/>
    <vehicle id="car_362" type="typeCar" route="EW" depart="793"/>
    <vehicle id="car_363" type="typeCar" route="NS" depart="796"/>
    <vehicle id="car_364" type="typeCar" route="NS" depart="797"/>
    <vehicle id="car_365" type="typeCar" route="WE" depart="797"/>
    <vehicle id="car_366" type="typeCar" route="EW" depart="799"/>
    <vehicle id="car_367" type="typeCar" route="NS" depart="800"/>
    <vehicle id="car_368" type="typeCar" route="EW" depart="802"/>
    <vehicle id="car_369" type="typeCar" route="SN" depart="804"/>
    <vehicle id="car_370" type="typeCar" route="SN" depart="807"/>
    <vehicle id="car_371" type="typeCar" route="WE" depart="807"/>
    <vehicle id="car_372" type="typeCar" route="WE" depart="808"/>
    <vehicle id="car_373" type="typeCar" route="EW" depart="811"/>
    <vehicle id="car_374" type="typeCar" route="EW" depart="814"/>
    <vehicle id="car_375" type="typeCar" route="WE" depart="816"/>
    <vehicle id="car_376" type="typeCar" route="SN" depart="818"/>
    <vehicle id="car_377" type="typeCar" route="NS" depart="821"/>
    <vehicle id="car_378" type="typeCar" route="EW" depart="824"/>
    <vehicle id="car_379" type="typeCar" route="EW" depart="828"/>
    <vehicle id="car_380" type="typeCar" route="WE" depart="829"/>
    <vehicle id="car_381" type="typeCar" route="NS" depart="830"/>
    <vehicle id="car_382" type="typeCar" route="WE" depart="835"/>
    <vehicle id="car_383" type="typeCar" route="WE" depart="839"/>
    <vehicle id="car_384" type="typeCar" route="WE" depart="840"/>
    <vehicle id="car_385" type="typeCar" route="NS" depart="842"/>
    <vehicle id="car_386" type="typeCar" route="EW" depart="845"/>
    <vehicle id="car_387" type="typeCar" route="WE" depart="846"/>
    <vehicle id="car_388" type="typeCar" route="WE" depart="851"/>
    <vehicle id="car_389" type="typeCar" route="NS" depart="858"/>
    <vehicle id="car_390" type="typeCar" route="WE" depart="859"/>
    <vehicle id="car_391" type="typeCar" route="WE" depart="860"/>
    <vehicle id="car_392" type="typeCar" route="EW" depart="862"/>
    <vehicle id="car_393" type="typeCar" route="NS" depart="866"/>
    <vehicle id="car_394" type="typeCar" route="SN" depart="870"/>
    <vehicle id="car_395" type="typeCar" route="EW" depart="872"/>
    <vehicle id="car_396" type="typeCar" route="NS" depart="873"/>
    <vehicle id="car_397" type="typeCar" route="NS" depart="876"/>
    <vehicle id="car_398" type="typeCar" route="WE" depart="876"/>
    <vehicle id="car_399" type="typeCar" route="EW" depart="878"/>
    <vehicle id="car_400" type="typeCar" route="NS" depart="879"/>
    <vehicle id="car_401" type="typeCar" route="WE" depart="879"/>
    <vehicle id="car_402" type="typeCar" route="EW" depart="880"/>
    <vehicle id="car_403" type="typeCar" route="WE" depart="882"/>
    <vehicle id="car_404" type="typeCar" route="WE" depart="887"/>
    <vehicle id="car_405" type="typeCar" route="NS" depart="888"/>
    <vehicle id="car_406" type="typeCar" route="NS" depart="890"/>
    <vehicle id="car_407" type="typeCar" route="SN" depart="890"/>
    <vehicle id="car_408" type="typeCar" route="WE" depart="890"/>
    <vehicle id="car_409" type="typeCar" route="WE" depart="891"/>
    <vehicle id="car_410" type="typeCar" route="WE" depart="893"/>
    <vehicle id="car_411" type="typeCar" route="WE" depart="894"/>
    <vehicle id="car_412" type="typeCar" route="EW" depart="895"/>
    <vehicle id="car_413" type="typeCar" route="WE" depart="904"/>
    <vehicle id="car_414" type="typeCar" route="WE" depart="906"/>
    <vehicle id="car_415" type="typeCar" route="EW" depart="908"/>
    <vehicle id="car_416" type="typeCar" route="EW" depart="913"/>
    <vehicle id="car_417" type="typeCar" route="NS" depart="916"/>
    <vehicle id="car_418" type="typeCar" route="SN" depart="917"/>
    <vehicle id="car_419" type="typeCar" route="NS" depart="919"/>
    <vehicle id="car_420" type="typeCar" route="EW" depart="920"/>
    <vehicle id="car_421" type="typeCar" route="WE" depart="921"/>
    <vehicle id="car_422" type="typeCar" route="EW" depart="922"/>
    <vehicle id="car_423" type="typeCar" route="EW" depart="924"/>
    <vehicle id="car_424" type="typeCar" route="EW" depart="929"/>
    <vehicle id="car_425" type="typeCar" route="NS" depart="933"/>
    <vehicle id="car_426" type="typeCar" route="EW" depart="937"/>
    <vehicle id="car_427" type="typeCar" route="SN" depart="938"/>
    <vehicle id="car_428" type="typeCar" route="WE" depart="938"/>
    <vehicle id="car_429" type="typeCar" route="SN" depart="948"/>
    <vehicle id="car_430" type="typeCar" route="EW" depart="948"/>
    <vehicle id="car_431" type="typeCar" route="EW" depart="949"/>
    <vehicle id="car_432" type="typeCar" route="NS" depart="953"/>
    <vehicle id="car_433" type="typeCar" route="WE" depart="961"/>
    <vehicle id="car_434" type="typeCar" route="NS" depart="966"/>
    <vehicle id="car_435" type="typeCar" route="NS" depart="968"/>
    <vehicle id="car_436" type="typeCar" route="WE" depart="969"/>
    <vehicle id="car_437" type="typeCar" route="NS" depart="975"/>
    <vehicle id="car_438" type="typeCar" route="NS" depart="976"/>
    <vehicle id="car_439" type="typeCar" route="EW" depart="976"/>
    <vehicle id="car_440" type="typeCar" route="WE" depart="977"/>
    <vehicle id="car_441" type="typeCar" route="EW" depart="979"/>
    <vehicle id="car_442" type="typeCar" route="EW" depart="990"/>
    <vehicle id="car_443" type="typeCar" route="NS" depart="991"/>
    <vehicle id="car_444" type="typeCar" route="NS" depart="992"/>