<routes>
        <vType id="typeCar" accel="0.8" decel="4.5" sigma="0.5" length="5" minGap="2.5" maxSpeed="16.67" guiShape="passenger"/>

        <route id="NS" edges="n2A A2s" />
        <route id="WE" edges="w2A A2e" />
        <route id="SN" edges="s2A A2n" />
        <route id="EW" edges="e2A A2w" />
    <vehicle id="car_0" type="typeCar" route="WE" depart="0"/>
    <vehicle id="car_1" type="typeCar" route="SN" depart="4"/>
    <vehicle id="car_2" type="typeCar" route="NS" depart="9"/>
    <vehicle id="car_3" type="typeCar" route="WE" depart="13"/>
    <vehicle id="car_4" type="typeCar" route="NS" depart="21"/>
    <vehicle id="car_5" type="typeCar" route="EW" depart="21"/>
    <vehicle id="car_6" type="typeCar" route="NS" depart="23"/>
    <vehicle id="car_7" type="typeCar" route="NS" depart="25"/>
    <vehicle id="car_8" type="typeCar" route="WE" depart="25"/>
    <vehicle id="car_9" type="typeCar" route="EW" depart="25"/>
    <vehicle id="car_10" type="typeCar" route="WE" depart="27"/>
    <vehicle id="car_11" type="typeCar" route="WE" depart="34"/>
    <vehicle id="car_12" type="typeCar" route="SN" depart="35"/>
    <vehicle id="car_13" type="typeCar" route="SN" depart="38"/>
    <vehicle id="car_14" type="typeCar" route="NS" depart="45"/>
    <vehicle id="car_15" type="typeCar" route="EW" depart="46"/>
    <vehicle id="car_16" type="typeCar" route="NS" depart="53"/>
    <vehicle id="car_17" type="typeCar" route="WE" depart="54"/>
    <vehicle id="car_18" type="typeCar" route="EW" depart="58"/>
    <vehicle id="car_19" type="typeCar" route="SN" depart="60"/>
    <vehicle id="car_20" type="typeCar" route="WE" depart="61"/>
    <vehicle id="car_21" type="typeCar" route="EW" depart="65"/>
    <vehicle id="car_22" type="typeCar" route="EW" depart="68"/>
    <vehicle id="car_23" type="typeCar" route="NS" depart="69"/>
    <vehicle id="car_24" type="typeCar" route="EW" depart="73"/>
    <vehicle id="car_25" type="typeCar" route="SN" depart="74"/>
    <vehicle id="car_26" type="typeCar" route="NS" depart="77"/>
    <vehicle id="car_27" type="typeCar" route="EW" depart="77"/>
    <vehicle id="car_28" type="typeCar" route="NS" depart="79"/>
    <vehicle id="car_29" type="typeCar" route="WE" depart="79"/>
    <vehicle id="car_30" type="typeCar" route="NS" depart="83"/>
    <vehicle id="car_31" type="typeCar" route="EW" depart="83"/>
    <vehicle id="car_32" type="typeCar" route="NS" depart="88"/>
    <vehicle id="car_33" type="typeCar" route="SN" depart="89"/>
    <vehicle id="car_34" type="typeCar" route="WE" depart="91"/>
    <vehicle id="car_35" type="typeCar" route="WE" depart="96"/>
    <vehicle id="car_36" type="typeCar" route="WE" depart="97"/>
    <vehicle id="car_37" type="typeCar" route="EW" depart="100"/>
    <vehicle id="car_38" type="typeCar" route="WE" depart="101"/>
    <vehicle id="car_39" type="typeCar" route="WE" depart="103"/>
    <vehicle id="car_40" type="typeCar" route="WE" depart="115"/>
    <vehicle id="car_41" type="typeCar" route="EW" depart="115"/>
    <vehicle id="car_42" type="typeCar" route="WE" depart="118"/>
    <vehicle id="car_43" type="typeCar" route="SN" depart="119"/>
    <vehicle id="car_44" type="typeCar" route="NS" depart="131"/>
    <vehicle id="car_45" type="typeCar" route="WE" depart="133"/>
    <vehicle id="car_46" type="typeCar" route="EW" depart="134"/>
    <vehicle id="car_47" type="typeCar" route="SN" depart="135"/>
    <vehicle id="car_48" type="typeCar" route="WE" depart="138"/>
    <vehicle id="car_49" type="typeCar" route="WE" depart="140"/>
    <vehicle id="car_50" type="typeCar" route="WE" depart="141"/>
    <vehicle id="car_51" type="typeCar" route="SN" depart="142"/>
    <vehicle id="car_52" type="typeCar" route="WE" depart="143"/>
    <vehicle id="car_53" type="typeCar" route="EW" depart="146"/>
    <vehicle id="car_54" type="typeCar" route="EW" depart="147"/>
    <vehicle id="car_55" type="typeCar" route="NS" depart="149"/>
    <vehicle id="car_56" type="typeCar" route="WE" depart="153"/>
    <vehicle id="car_57" type="typeCar" route="EW" depart="153"/>
    <vehicle id="car_58" type="typeCar" route="NS" depart="155"/>
    <vehicle id="car_59" type="typeCar" route="EW" depart="160"/>
    <vehicle id="car_60" type="typeCar" route="SN" depart="162"/>
    <vehicle id="car_61" type="typeCar" route="EW" depart="163"/>
    <vehicle id="car_62" type="typeCar" route="EW" depart="164"/>
    <vehicle id="car_63" type="typeCar" route="NS" depart="166"/>
    <vehicle id="car_64" type="typeCar" route="WE" depart="171"/>
    <vehicle id="car_65" type="typeCar" route="WE" depart="172"/>
    <vehicle id="car_66" type="typeCar" route="SN" depart="175"/>
    <vehicle id="car_67" type="typeCar" route="EW" depart="177"/>
    <vehicle id="car_68" type="typeCar" route="WE" depart="181"/>
    <vehicle id="car_69" type="typeCar" route="EW" depart="182"/>
    <vehicle id="car_70" type="typeCar" route="WE" depart="186"/>
    <vehicle id="car_71" type="typeCar" route="NS" depart="187"/>
    <vehicle id="car_72" type="typeCar" route="EW" depart="187"/>
    <vehicle id="car_73" type="typeCar" route="EW" depart="189"/>
    <vehicle id="car_74" type="typeCar" route="SN" depart="190"/>
    <vehicle id="car_75" type="typeCar" route="WE" depart="190"/>
    <vehicle id="car_76" type="typeCar" route="EW" depart="190"/>
    <vehicle id="car_77" type="typeCar" route="WE" depart="191"/>
    <vehicle id="car_78" type="typeCar" route="WE" depart="194"/>
    <vehicle id="car_79" type="typeCar" route="EW" depart="194"/>
    <vehicle id="car_80" type="typeCar" route="EW" depart="195"/>
    <vehicle id="car_81" type="typeCar" route="WE" depart="197"/>
    <vehicle id="car_82" type="typeCar" route="NS" depart="201"/>
    <vehicle id="car_83" type="typeCar" route="SN" depart="201"/>
    <vehicle id="car_84" type="typeCar" route="EW" depart="205"/>
    <vehicle id="car_85" type="typeCar" route="WE" depart="208"/>
    <vehicle id="car_86" type="typeCar" route="SN" depart="209"/>
    <vehicle id="car_87" type="typeCar" route="WE" depart="209"/>
    <vehicle id="car_88" type="typeCar" route="EW" depart="211"/>
    <vehicle id="car_89" type="typeCar" route="EW" depart="213"/>
    <vehicle id="car_90" type="typeCar" route="SN" depart="216"/>
    <vehicle id="car_91" type="typeCar" route="SN" depart="217"/>
    <vehicle id="car_92" type="typeCar" route="WE" depart="217"/>
    <vehicle id="car_93" type="typeCar" route="WE" depart="218"/>
    <vehicle id="car_94" type="typeCar" route="WE" depart="220"/>
    <vehicle id="car_95" type="typeCar" route="EW" depart="225"/>
    <vehicle id="car_96" type="typeCar" route="EW" depart="229"/>
    <vehicle id="car_97" type="typeCar" route="EW" depart="231"/>
    <vehicle id="car_98" type="typeCar" route="SN" depart="236"/>
    <vehicle id="car_99" type="typeCar" route="SN" depart="246"/>
    <vehicle id="car_100" type="typeCar" route="EW" depart="250"/>
    <vehicle id="car_101" type="typeCar" route="NS" depart="251"/>
    <vehicle id="car_102" type="typeCar" route="NS" depart="252"/>
    <vehicle id="car_103" type="typeCar" route="EW" depart="253"/>
    <vehicle id="car_104" type="typeCar" route="WE" depart="254"/>
    <vehicle id="car_105" type="typeCar" route="EW" depart="254"/>
    <vehicle id="car_106" type="typeCar" route="EW" depart="256"/>
    <vehicle id="car_107" type="typeCar" route="NS" depart="257"/>
    <vehicle id="car_108" type="typeCar" route="NS" depart="259"/>
    <vehicle id="car_109" type="typeCar" route="WE" depart="259"/>
    <vehicle id="car_110" type="typeCar" route="NS" depart="263"/>
    <vehicle id="car_111" type="typeCar" route="EW" depart="265"/>
    <vehicle id="car_112" type="typeCar" route="WE" depart="266"/>
    <vehicle id="car_113" type="typeCar" route="NS" depart="268"/>
    <vehicle id="car_114" type="typeCar" route="SN" depart="269"/>
    <vehicle id="car_115" type="typeCar" route="NS" depart="270"/>
    <vehicle id="car_116" type="typeCar" route="WE" depart="271"/>
    <vehicle id="car_117" type="typeCar" route="SN" depart="272"/>
    <vehicle id="car_118" type="typeCar" route="EW" depart="284"/>
    <vehicle id="car_119" type="typeCar" route="NS" depart="286"/>
    <vehicle id="car_120" type="typeCar" route="EW" depart="287"/>
    <vehicle id="car_121" type="typeCar" route="EW" depart="288"/>
    <vehicle id="car_122" type="typeCar" route="EW" depart="290"/>
    <vehicle id="car_123" type="typeCar" route="EW" depart="294"/>
    <vehicle id="car_124" type="typeCar" route="WE" depart="305"/>
    <vehicle id="car_125" type="typeCar" route="EW" depart="305"/>
    <vehicle id="car_126" type="typeCar" route="EW" depart="308"/>
    <vehicle id="car_127" type="typeCar" route="NS" depart="312"/>
    <vehicle id="car_128" type="typeCar" route="SN" depart="312"/>
    <vehicle id="car_129" type="typeCar" route="WE" depart="316"/>
    <vehicle id="car_130" type="typeCar" route="EW" depart="316"/>
    <vehicle id="car_131" type="typeCar" route="EW" depart="320"/>
    <vehicle id="car_132" type="typeCar" route="EW" depart="321"/>
    <vehicle id="car_133" type="typeCar" route="EW" depart="326"/>
    <vehicle id="car_134" type="typeCar" route="WE" depart="328"/>
    <vehicle id="car_135" type="typeCar" route="NS" depart="329"/>
    <vehicle id="car_136" type="typeCar" route="NS" depart="330"/>
    <vehicle id="car_137" type="typeCar" route="WE" depart="330"/>
    <vehicle id="car_138" type="typeCar" route="EW" depart="330"/>
    <vehicle id="car_139" type="typeCar" route="EW" depart="331"/>
    <vehicle id="car_140" type="typeCar" route="WE" depart="333"/>
    <vehicle id="car_141" type="typeCar" route="SN" depart="335"/>
    <vehicle id="car_142" type="typeCar" route="NS" depart="337"/>
    <vehicle id="car_143" type="typeCar" route="NS" depart="339"/>
    <vehicle id="car_144" type="typeCar" route="SN" depart="340"/>
    <vehicle id="car_145" type="typeCar" route="EW" depart="340"/>
    <vehicle id="car_146" type="typeCar" route="WE" depart="346"/>
    <vehicle id="car_147" type="typeCar" route="EW" depart="350"/>
    <vehicle id="car_148" type="typeCar" route="NS" depart="354"/>
    <vehicle id="car_149" type="typeCar" route="EW" depart="356"/>
    <vehicle id="car_150" type="typeCar" route="WE" depart="357"/>
    <vehicle id="car_151" type="typeCar" route="WE" depart="358"/>
    <vehicle id="car_152" type="typeCar" route="SN" depart="359"/>
    <vehicle id="car_153" type="typeCar" route="EW" depart="359"/>
    <vehicle id="car_154" type="typeCar" route="NS" depart="361"/>
    <vehicle id="car_155" type="typeCar" route="EW" depart="362"/>
    <vehicle id="car_156" type="typeCar" route="WE" depart="367"/>
    <vehicle id="car_157" type="typeCar" route="NS" depart="369"/>
    <vehicle id="car_158" type="typeCar" route="EW" depart="369"/>
    <vehicle id="car_159" type="typeCar" route="NS" depart="371"/>
    <vehicle id="car_160" type="typeCar" route="SN" depart="374"/>
    <vehicle id="car_161" type="typeCar" route="SN" depart="376"/>
    <vehicle id="car_162" type="typeCar" route="SN" depart="378"/>
    <vehicle id="car_163" type="typeCar" route="EW" depart="378"/>
    <vehicle id="car_164" type="typeCar" route="NS" depart="383"/>
    <vehicle id="car_165" type="typeCar" route="WE" depart="384"/>
    <vehicle id="car_166" type="typeCar" route="NS" depart="388"/>
    <vehicle id="car_167" type="typeCar" route="NS" depart="392"/>
    <vehicle id="car_168" type="typeCar" route="SN" depart="392"/>
    <vehicle id="car_169" type="typeCar" route="NS" depart="393"/>
    <vehicle id="car_170" type="typeCar" route="NS" depart="394"/>
    <vehicle id="car_171" type="typeCar" route="EW" depart="397"/>
    <vehicle id="car_172" type="typeCar" route="WE" depart="399"/>
    <vehicle id="car_173" type="typeCar" route="SN" depart="401"/>
    <vehicle id="car_174" type="typeCar" route="WE" depart="403"/>
    <vehicle id="car_175" type="typeCar" route="EW" depart="404"/>
    <vehicle id="car_176" type="typeCar" route="WE" depart="405"/>
    <vehicle id="car_177" type="typeCar" route="WE" depart="411"/>
    <vehicle id="car_178" type="typeCar" route="EW" depart="413"/>
    <vehicle id="car_179" type="typeCar" route="EW" depart="415"/>
    <vehicle id="car_180" type="typeCar" route="NS" depart="422"/>
    <vehicle id="car_181" type="typeCar" route="SN" depart="424"/>
    <vehicle id="car_182" type="typeCar" route="EW" depart="425"/>
    <vehicle id="car_183" type="typeCar" route="NS" depart="429"/>
    <vehicle id="car_184" type="typeCar" route="EW" depart="431"/>
    <vehicle id="car_185" type="typeCar" route="WE" depart="435"/>
    <vehicle id="car_186" type="typeCar" route="NS" depart="440"/>
    <vehicle id="car_187" type="typeCar" route="SN" depart="442"/>
    <vehicle id="car_188" type="typeCar" route="NS" depart="444"/>
    <vehicle id="car_189" type="typeCar" route="WE" depart="444"/>
    <vehicle id="car_190" type="typeCar" route="NS" depart="447"/>
    <vehicle id="car_191" type="typeCar" route="WE" depart="447"/>
    <vehicle id="car_192" type="typeCar" route="WE" depart="451"/>
    <vehicle id="car_193" type="typeCar" route="EW" depart="451"/>
    <vehicle id="car_194" type="typeCar" route="WE" depart="453"/>
    <vehicle id="car_195" type="typeCar" route="WE" depart="460"/>
    <vehicle id="car_196" type="typeCar" route="EW" depart="461"/>
    <vehicle id="car_197" type="typeCar" route="WE" depart="464"/>
    <vehicle id="car_198" type="typeCar" route="WE" depart="477"/>
    <vehicle id="car_199" type="typeCar" route="EW" depart="477"/>
    <vehicle id="car_200" type="typeCar" route="EW" depart="479"/>
    <vehicle id="car_201" type="typeCar" route="WE" depart="483"/>
    <vehicle id="car_202" type="typeCar" route="NS" depart="487"/>
    <vehicle id="car_203" type="typeCar" route="EW" depart="489"/>
    <vehicle id="car_204" type="typeCar" route="EW" depart="490"/>
    <vehicle id="car_205" type="typeCar" route="EW" depart="492"/>
    <vehicle id="car_206" type="typeCar" route="WE" depart="493"/>
    <vehicle id="car_207" type="typeCar" route="NS" depart="497"/>
    <vehicle id="car_208" type="typeCar" route="SN" depart="499"/>
</routes>
