<routes>
        <vType id="typeCar" accel="0.8" decel="4.5" sigma="0.5" length="5" minGap="2.5" maxSpeed="16.67" guiShape="passenger"/>

        <route id="NS" edges="n2A A2s" />
        <route id="WE" edges="w2A A2e" />
        <route id="SN" edges="s2A A2n" />
        <route id="EW" edges="e2A A2w" />
    <vehicle id="car_0" type="typeCar" route="WE" depart="3"/>
    <vehicle id="car_1" type="typeCar" route="EW" depart="5"/>
    <vehicle id="car_2" type="typeCar" route="NS" depart="7"/>
    <vehicle id="car_3" type="typeCar" route="SN" depart="11"/>
    <vehicle id="car_4" type="typeCar" route="EW" depart="11"/>
    <vehicle id="car_5" type="typeCar" route="NS" depart="13"/>
    <vehicle id="car_6" type="typeCar" route="EW" depart="13"/>
    <vehicle id="car_7" type="typeCar" route="WE" depart="14"/>
    <vehicle id="car_8" type="typeCar" route="EW" depart="15"/>
    <vehicle id="car_9" type="typeCar" route="WE" depart="24"/>
    <vehicle id="car_10" type="typeCar" route="WE" depart="25"/>
    <vehicle id="car_11" type="typeCar" route="NS" depart="27"/>
    <vehicle id="car_12" type="typeCar" route="NS" depart="29"/>
    <vehicle id="car_13" type="typeCar" route="EW" depart="29"/>
    <vehicle id="car_14" type="typeCar" route="NS" depart="30"/>
    <vehicle id="car_15" type="typeCar" route="WE" depart="31"/>
    <vehicle id="car_16" type="typeCar" route="WE" depart="33"/>
    <vehicle id="car_17" type="typeCar" route="NS" depart="34"/>
    <vehicle id="car_18" type="typeCar" route="SN" depart="36"/>
    <vehicle id="car_19" type="typeCar" route="WE" depart="38"/>
    <vehicle id="car_20" type="typeCar" route="NS" depart="42"/>
    <vehicle id="car_21" type="typeCar" route="EW" depart="44"/>
    <vehicle id="car_22" type="typeCar" route="NS" depart="50"/>
    <vehicle id="car_23" type="typeCar" route="EW" depart="53"/>
    <vehicle id="car_24" type="typeCar" route="NS" depart="56"/>
    <vehicle id="car_25" type="typeCar" route="EW" depart="57"/>
    <vehicle id="car_26" type="typeCar" route="WE" depart="61"/>
    <vehicle id="car_27" type="typeCar" route="EW" depart="61"/>
    <vehicle id="car_28" type="typeCar" route="EW" depart="63"/>
    <vehicle id="car_29" type="typeCar" route="WE" depart="67"/>
    <vehicle id="car_30" type="typeCar" route="EW" depart="68"/>
    <vehicle id="car_31" type="typeCar" route="WE" depart="70"/>
    <vehicle id="car_32" type="typeCar" route="EW" depart="75"/>
    <vehicle id="car_33" type="typeCar" route="NS" depart="76"/>
    <vehicle id="car_34" type="typeCar" route="WE" depart="79"/>
    <vehicle id="car_35" type="typeCar" route="NS" depart="81"/>
    <vehicle id="car_36" type="typeCar" route="EW" depart="84"/>
    <vehicle id="car_37" type="typeCar" route="WE" depart="91"/>
    <vehicle id="car_38" type="typeCar" route="WE" depart="94"/>
    <vehicle id="car_39" type="typeCar" route="NS" depart="96"/>
</routes>
