<routes>
        <vType id="typeCar" accel="0.8" decel="4.5" sigma="0.5" length="5" minGap="2.5" maxSpeed="16.67" guiShape="passenger"/>

        <route id="NS" edges="n2A A2s" />
        <route id="WE" edges="w2A A2e" />
        <route id="SN" edges="s2A A2n" />
        <route id="EW" edges="e2A A2w" />
    <vehicle id="car_0" type="typeCar" route="NS" depart="4"/>
    <vehicle id="car_1" type="typeCar" route="WE" depart="4"/>
    <vehicle id="car_2" type="typeCar" route="EW" depart="6"/>
    <vehicle id="car_3" type="typeCar" route="EW" depart="7"/>
    <vehicle id="car_4" type="typeCar" route="WE" depart="8"/>
    <vehicle id="car_5" type="typeCar" route="WE" depart="10"/>
    <vehicle id="car_6" type="typeCar" route="SN" depart="12"/>
    <vehicle id="car_7" type="typeCar" route="NS" depart="13"/>
    <vehicle id="car_8" type="typeCar" route="SN" depart="13"/>
    <vehicle id="car_9" type="typeCar" route="WE" depart="15"/>
    <vehicle id="car_10" type="typeCar" route="SN" depart="25"/>
    <vehicle id="car_11" type="typeCar" route="SN" depart="26"/>
    <vehicle id="car_12" type="typeCar" route="NS" depart="28"/>
    <vehicle id="car_13" type="typeCar" route="SN" depart="28"/>
    <vehicle id="car_14" type="typeCar" route="SN" depart="29"/>
    <vehicle id="car_15" type="typeCar" route="NS" depart="33"/>
    <vehicle id="car_16" type="typeCar" route="WE" depart="33"/>
    <vehicle id="car_17" type="typeCar" route="NS" depart="36"/>
    <vehicle id="car_18" type="typeCar" route="NS" depart="43"/>
    <vehicle id="car_19" type="typeCar" route="WE" depart="47"/>
    <vehicle id="car_20" type="typeCar" route="EW" depart="59"/>
    <vehicle id="car_21" type="typeCar" route="WE" depart="62"/>
    <vehicle id="car_22" type="typeCar" route="NS" depart="68"/>
    <vehicle id="car_23" type="typeCar" route="EW" depart="71"/>
    <vehicle id="car_24" type="typeCar" route="EW" depart="72"/>
    <vehicle id="car_25" type="typeCar" route="NS" depart="73"/>
    <vehicle id="car_26" type="typeCar" route="EW" depart="79"/>
    <vehicle id="car_27" type="typeCar" route="WE" depart="80"/>
    <vehicle id="car_28" type="typeCar" route="NS" depart="82"/>
    <vehicle id="car_29" type="typeCar" route="NS" depart="85"/>
    <vehicle id="car_30" type="typeCar" route="EW" depart="85"/>
    <vehicle id="car_31" type="typeCar" route="NS" depart="92"/>
    <vehicle id="car_32" type="typeCar" route="EW" depart="93"/>
    <vehicle id="car_33" type="typeCar" route="WE" depart="94"/>
    <vehicle id="car_34" type="typeCar" route="NS" depart="98"/>
    <vehicle id="car_35" type="typeCar" route="EW" depart="101"/>
    <vehicle id="car_36" type="typeCar" route="SN" depart="102"/>
    <vehicle id="car_37" type="typeCar" route="WE" depart="102"/>
    <vehicle id="car_38" type="typeCar" route="EW" depart="108"/>
    <vehicle id="car_39" type="typeCar" route="EW" depart="110"/>
    <vehicle id="car_40" type="typeCar" route="WE" depart="112"/>
    <vehicle id="car_41" type="typeCar" route="WE" depart="116"/>
    <vehicle id="car_42" type="typeCar" route="WE" depart="117"/>
    <vehicle id="car_43" type="typeCar" route="NS" depart="122"/>
    <vehicle id="car_44" type="typeCar" route="WE" depart="122"/>
    <vehicle id="car_45" type="typeCar" route="SN" depart="123"/>
    <vehicle id="car_46" type="typeCar" route="WE" depart="125"/>
    <vehicle id="car_47" type="typeCar" route="WE" depart="131"/>
    <vehicle id="car_48" type="typeCar" route="EW" depart="131"/>
    <vehicle id="car_49" type="typeCar" route="WE" depart="133"/>
    <vehicle id="car_50" type="typeCar" route="EW" depart="133"/>
    <vehicle id="car_51" type="typeCar" route="EW" depart="137"/>
    <vehicle id="car_52" type="typeCar" route="SN" depart="142"/>
    <vehicle id="car_53" type="typeCar" route="SN" depart="147"/>
    <vehicle id="car_54" type="typeCar" route="WE" depart="147"/>
    <vehicle id="car_55" type="typeCar" route="EW" depart="151"/>
    <vehicle id="car_56" type="typeCar" route="NS" depart="156"/>
    <vehicle id="car_57" type="typeCar" route="WE" depart="157"/>
    <vehicle id="car_58" type="typeCar" route="WE" depart="161"/>
    <vehicle id="car_59" type="typeCar" route="EW" depart="161"/>
    <vehicle id="car_60" type="typeCar" route="SN" depart="162"/>
    <vehicle id="car_61" type="typeCar" route="NS" depart="165"/>
    <vehicle id="car_62" type="typeCar" route="NS" depart="167"/>
    <vehicle id="car_63" type="typeCar" route="WE" depart="168"/>
    <vehicle id="car_64" type="typeCar" route="EW" depart="168"/>
    <vehicle id="car_65" type="typeCar" route="NS" depart="174"/>
    <vehicle id="car_66" type="typeCar" route="WE" depart="175"/>
    <vehicle id="car_67" type="typeCar" route="WE" depart="178"/>
    <vehicle id="car_68" type="typeCar" route="NS" depart="181"/>
    <vehicle id="car_69" type="typeCar" route="SN" depart="189"/>
    <vehicle id="car_70" type="typeCar" route="EW" depart="190"/>
    <vehicle id="car_71" type="typeCar" route="SN" depart="194"/>
    <vehicle id="car_72" type="typeCar" route="NS" depart="196"/>
    <vehicle id="car_73" type="typeCar" route="NS" depart="199"/>
    <vehicle id="car_74" type="typeCar" route="NS" depart="201"/>
    <vehicle id="car_75" type="typeCar" route="EW" depart="201"/>
    <vehicle id="car_76" type="typeCar" route="EW" depart="202"/>
    <vehicle id="car_77" type="typeCar" route="SN" depart="203"/>
    <vehicle id="car_78" type="typeCar" route="EW" depart="203"/>
    <vehicle id="car_79" type="typeCar" route="WE" depart="204"/>
    <vehicle id="car_80" type="typeCar" route="WE" depart="205"/>
    <vehicle id="car_81" type="typeCar" route="WE" depart="212"/>
    <vehicle id="car_82" type="typeCar" route="NS" depart="215"/>
    <vehicle id="car_83" type="typeCar" route="NS" depart="221"/>
    <vehicle id="car_84" type="typeCar" route="NS" depart="225"/>
    <vehicle id="car_85" type="typeCar" route="WE" depart="225"/>
    <vehicle id="car_86" type="typeCar" route="SN" depart="231"/>
    <vehicle id="car_87" type="typeCar" route="WE" depart="231"/>
    <vehicle id="car_88" type="typeCar" route="NS" depart="238"/>
    <vehicle id="car_89" type="typeCar" route="WE" depart="241"/>
    <vehicle id="car_90" type="typeCar" route="WE" depart="242"/>
    <vehicle id="car_91" type="typeCar" route="NS" depart="246"/>
    <vehicle id="car_92" type="typeCar" route="EW" depart="247"/>
    <vehicle id="car_93" type="typeCar" route="NS" depart="252"/>
    <vehicle id="car_94" type="typeCar" route="NS" depart="254"/>
    <vehicle id="car_95" type="typeCar" route="NS" depart="255"/>
    <vehicle id="car_96" type="typeCar" route="EW" depart="255"/>
    <vehicle id="car_97" type="typeCar" route="EW" depart="256"/>
    <vehicle id="car_98" type="typeCar" route="EW" depart="259"/>
    <vehicle id="car_99" type="typeCar" route="NS" depart="260"/>
    <vehicle id="car_100" type="typeCar" route="WE" depart="260"/>
    <vehicle id="car_101" type="typeCar" route="NS" depart="263"/>
    <vehicle id="car_102" type="typeCar" route="WE" depart="264"/>
    <vehicle id="car_103" type="typeCar" route="NS" depart="266"/>
    <vehicle id="car_104" type="typeCar" route="WE" depart="269"/>
    <vehicle id="car_105" type="typeCar" route="WE" depart="272"/>
    <vehicle id="car_106" type="typeCar" route="WE" depart="276"/>
    <vehicle id="car_107" type="typeCar" route="NS" depart="277"/>
    <vehicle id="car_108" type="typeCar" route="SN" depart="282"/>
    <vehicle id="car_109" type="typeCar" route="EW" depart="282"/>
    <vehicle id="car_110" type="typeCar" route="NS" depart="286"/>
    <vehicle id="car_111" type="typeCar" route="WE" depart="286"/>
    <vehicle id="car_112" type="typeCar" route="EW" depart="287"/>
    <vehicle id="car_113" type="typeCar" route="EW" depart="290"/>
    <vehicle id="car_114" type="typeCar" route="WE" depart="291"/>
    <vehicle id="car_115" type="typeCar" route="NS" depart="292"/>
    <vehicle id="car_116" type="typeCar" route="NS" depart="296"/>
    <vehicle id="car_117" type="typeCar" route="NS" depart="299"/>
    <vehicle id="car_118" type="typeCar" route="WE" depart="302"/>
    <vehicle id="car_119" type="typeCar" route="NS" depart="303"/>
    <vehicle id="car_120" type="typeCar" route="WE" depart="305"/>
    <vehicle id="car_121" type="typeCar" route="EW" depart="306"/>
    <vehicle id="car_122" type="typeCar" route="EW" depart="310"/>
    <vehicle id="car_123" type="typeCar" route="EW" depart="314"/>
    <vehicle id="car_124" type="typeCar" route="WE" depart="317"/>
    <vehicle id="car_125" type="typeCar" route="EW" depart="317"/>
    <vehicle id="car_126" type="typeCar" route="WE" depart="318"/>
    <vehicle id="car_127" type="typeCar" route="WE" depart="321"/>
    <vehicle id="car_128" type="typeCar" route="WE" depart="328"/>
    <vehicle id="car_129" type="typeCar" route="WE" depart="332"/>
    <vehicle id="car_130" type="typeCar" route="EW" depart="334"/>
    <vehicle id="car_131" type="typeCar" route="NS" depart="338"/>
    <vehicle id="car_132" type="typeCar" route="EW" depart="338"/>
    <vehicle id="car_133" type="typeCar" route="WE" depart="340"/>
    <vehicle id="car_134" type="typeCar" route="NS" depart="341"/>
    <vehicle id="car_135" type="typeCar" route="EW" depart="342"/>
    <vehicle id="car_136" type="typeCar" route="SN" depart="343"/>
    <vehicle id="car_137" type="typeCar" route="WE" depart="343"/>
    <vehicle id="car_138" type="typeCar" route="WE" depart="344"/>
    <vehicle id="car_139" type="typeCar" route="EW" depart="348"/>
    <vehicle id="car_140" type="typeCar" route="WE" depart="349"/>
    <vehicle id="car_141" type="typeCar" route="WE" depart="354"/>
    <vehicle id="car_142" type="typeCar" route="EW" depart="354"/>
    <vehicle id="car_143" type="typeCar" route="WE" depart="355"/>
    <vehicle id="car_144" type="typeCar" route="WE" depart="356"/>
    <vehicle id="car_145" type="typeCar" route="EW" depart="356"/>
    <vehicle id="car_146" type="typeCar" route="EW" depart="360"/>
    <vehicle id="car_147" type="typeCar" route="WE" depart="362"/>
    <vehicle id="car_148" type="typeCar" route="EW" depart="362"/>
    <vehicle id="car_149" type="typeCar" route="WE" depart="364"/>
    <vehicle id="car_150" type="typeCar" route="EW" depart="365"/>
    <vehicle id="car_151" type="typeCar" route="NS" depart="367"/>
    <vehicle id="car_152" type="typeCar" route="EW" depart="367"/>
    <vehicle id="car_153" type="typeCar" route="WE" depart="368"/>
    <vehicle id="car_154" type="typeCar" route="EW" depart="368"/>
    <vehicle id="car_155" type="typeCar" route="WE" depart="370"/>
    <vehicle id="car_156" type="typeCar" route="WE" depart="372"/>
    <vehicle id="car_157" type="typeCar" route="EW" depart="373"/>
    <vehicle id="car_158" type="typeCar" route="EW" depart="376"/>
    <vehicle id="car_159" type="typeCar" route="EW" depart="384"/>
    <vehicle id="car_160" type="typeCar" route="EW" depart="388"/>
    <vehicle id="car_161" type="typeCar" route="WE" depart="389"/>
    <vehicle id="car_162" type="typeCar" route="EW" depart="389"/>
    <vehicle id="car_163" type="typeCar" route="WE" depart="392"/>
    <vehicle id="car_164" type="typeCar" route="SN" depart="394"/>
    <vehicle id="car_165" type="typeCar" route="WE" depart="398"/>
    <vehicle id="car_166" type="typeCar" route="EW" depart="398"/>
    <vehicle id="car_167" type="typeCar" route="EW" depart="400"/>
    <vehicle id="car_168" type="typeCar" route="EW" depart="402"/>
    <vehicle id="car_169" type="typeCar" route="SN" depart="405"/>
    <vehicle id="car_170" type="typeCar" route="WE" depart="407"/>
    <vehicle id="car_171" type="typeCar" route="EW" depart="409"/>
    <vehicle id="car_172" type="typeCar" route="WE" depart="415"/>
    <vehicle id="car_173" type="typeCar" route="EW" depart="415"/>
    <vehicle id="car_174" type="typeCar" route="SN" depart="416"/>
    <vehicle id="car_175" type="typeCar" route="NS" depart="422"/>
    <vehicle id="car_176" type="typeCar" route="WE" depart="427"/>
    <vehicle id="car_177" type="typeCar" route="NS" depart="428"/>
    <vehicle id="car_178" type="typeCar" route="EW" depart="431"/>
    <vehicle id="car_179" type="typeCar" route="EW" depart="434"/>
    <vehicle id="car_180" type="typeCar" route="EW" depart="437"/>
    <vehicle id="car_181" type="typeCar" route="WE" depart="439"/>
    <vehicle id="car_182" type="typeCar" route="NS" depart="441"/>
    <vehicle id="car_183" type="typeCar" route="WE" depart="441"/>
    <vehicle id="car_184" type="typeCar" route="WE" depart="442"/>
    <vehicle id="car_185" type="typeCar" route="EW" depart="446"/>
    <vehicle id="car_186" type="typeCar" route="WE" depart="453"/>
    <vehicle id="car_187" type="typeCar" route="WE" depart="454"/>
    <vehicle id="car_188" type="typeCar" route="EW" depart="454"/>
    <vehicle id="car_189" type="typeCar" route="EW" depart="456"/>
    <vehicle id="car_190" type="typeCar" route="SN" depart="461"/>
    <vehicle id="car_191" type="typeCar" route="WE" depart="466"/>
    <vehicle id="car_192" type="typeCar" route="EW" depart="466"/>
    <vehicle id="car_193" type="typeCar" route="WE" depart="467"/>
    <vehicle id="car_194" type="typeCar" route="WE" depart="471"/>
    <vehicle id="car_195" type="typeCar" route="WE" depart="473"/>
    <vehicle id="car_196" type="typeCar" route="WE" depart="476"/>
    <vehicle id="car_197" type="typeCar" route="WE" depart="480"/>
    <vehicle id="car_198" type="typeCar" route="WE" depart="481"/>
    <vehicle id="car_199" type="typeCar" route="NS" depart="486"/>
    <vehicle id="car_200" type="typeCar" route="WE" depart="486"/>
    <vehicle id="car_201" type="typeCar" route="EW" depart="486"/>
    <vehicle id="car_202" type="typeCar" route="NS" depart="487"/>
    <vehicle id="car_203" type="typeCar" route="NS" depart="498"/>
    <vehicle id="car_204" type="typeCar" route="SN" depart="500"/>
    <vehicle id="car_205" type="typeCar" route="WE" depart="500"/>
    <vehicle id="car_206" type="typeCar" route="EW" depart="502"/>
    <vehicle id="car_207" type="typeCar" route="EW" depart="504"/>
    <vehicle id="car_208" type="typeCar" route="EW" depart="505"/>
    <vehicle id="car_209" type="typeCar" route="NS" depart="509"/>
    <vehicle id="car_210" type="typeCar" route="SN" depart="509"/>
    <vehicle id="car_211" type="typeCar" route="SN" depart="511"/>
    <vehicle id="car_212" type="typeCar" route="EW" depart="513"/>
    <vehicle id="car_213" type="typeCar" route="SN" depart="515"/>
    <vehicle id="car_214" type="typeCar" route="WE" depart="515"/>
    <vehicle id="car_215" type="typeCar" route="EW" depart="515"/>
    <vehicle id="car_216" type="typeCar" route="WE" depart="517"/>
    <vehicle id="car_217" type="typeCar" route="EW" depart="517"/>
    <vehicle id="car_218" type="typeCar" route="WE" depart="519"/>
    <vehicle id="car_219" type="typeCar" route="EW" depart="519"/>
    <vehicle id="car_220" type="typeCar" route="EW" depart="523"/>
    <vehicle id="car_221" type="typeCar" route="NS" depart="524"/>
    <vehicle id="car_222" type="typeCar" route="SN" depart="526"/>
    <vehicle id="car_223" type="typeCar" route="EW" depart="527"/>
    <vehicle id="car_224" type="typeCar" route="EW" depart="529"/>
    <vehicle id="car_225" type="typeCar" route="EW" depart="530"/>
    <vehicle id="car_226" type="typeCar" route="WE" depart="533"/>
    <vehicle id="car_227" type="typeCar" route="EW" depart="533"/>
    <vehicle id="car_228" type="typeCar" route="EW" depart="534"/>
    <vehicle id="car_229" type="typeCar" route="NS" depart="536"/>
    <vehicle id="car_230" type="typeCar" route="NS" depart="537"/>
    <vehicle id="car_231" type="typeCar" route="EW" depart="539"/>
    <vehicle id="car_232" type="typeCar" route="NS" depart="540"/>
    <vehicle id="car_233" type="typeCar" route="NS" depart="543"/>
    <vehicle id="car_234" type="typeCar" route="NS" depart="544"/>
    <vehicle id="car_235" type="typeCar" route="WE" depart="546"/>
    <vehicle id="car_236" type="typeCar" route="NS" depart="548"/>
    <vehicle id="car_237" type="typeCar" route="WE" depart="550"/>
    <vehicle id="car_238" type="typeCar" route="SN" depart="552"/>
    <vehicle id="car_239" type="typeCar" route="NS" depart="553"/>
    <vehicle id="car_240" type="typeCar" route="EW" depart="554"/>
    <vehicle id="car_241" type="typeCar" route="NS" depart="556"/>
    <vehicle id="car_242" type="typeCar" route="WE" depart="558"/>
    <vehicle id="car_243" type="typeCar" route="NS" depart="559"/>
    <vehicle id="car_244" type="typeCar" route="EW" depart="561"/>
    <vehicle id="car_245" type="typeCar" route="EW" depart="565"/>
    <vehicle id="car_246" type="typeCar" route="NS" depart="568"/>
    <vehicle id="car_247" type="typeCar" route="WE" depart="569"/>
    <vehicle id="car_248" type="typeCar" route="WE" depart="573"/>
    <vehicle id="car_249" type="typeCar" route="WE" depart="577"/>
    <vehicle id="car_250" type="typeCar" route="WE" depart="579"/>
    <vehicle id="car_251" type="typeCar" route="EW" depart="584"/>
    <vehicle id="car_252" type="typeCar" route="WE" depart="586"/>
    <vehicle id="car_253" type="typeCar" route="NS" depart="589"/>
    <vehicle id="car_254" type="typeCar" route="EW" depart="589"/>
    <vehicle id="car_255" type="typeCar" route="EW" depart="590"/>
    <vehicle id="car_256" type="typeCar" route="SN" depart="596"/>
    <vehicle id="car_257" type="typeCar" route="EW" depart="596"/>
    <vehicle id="car_258" type="typeCar" route="EW" depart="597"/>
    <vehicle id="car_259" type="typeCar" route="NS" depart="602"/>
    <vehicle id="car_260" type="typeCar" route="EW" depart="603"/>
    <vehicle id="car_261" type="typeCar" route="NS" depart="611"/>
    <vehicle id="car_262" type="typeCar" route="SN" depart="612"/>
    <vehicle id="car_263" type="typeCar" route="EW" depart="617"/>
    <vehicle id="car_264" type="typeCar" route="SN" depart="620"/>
    <vehicle id="car_265" type="typeCar" route="SN" depart="621"/>
    <vehicle id="car_266" type="typeCar" route="EW" depart="621"/>
    <vehicle id="car_267" type="typeCar" route="EW" depart="622"/>
    <vehicle id="car_268" type="typeCar" route="NS" depart="623"/>
    <vehicle id="car_269" type="typeCar" route="WE" depart="623"/>
    <vehicle id="car_270" type="typeCar" route="EW" depart="626"/>
    <vehicle id="car_271" type="typeCar" route="WE" depart="629"/>
    <vehicle id="car_272" type="typeCar" route="NS" depart="631"/>
    <vehicle id="car_273" type="typeCar" route="EW" depart="632"/>
    <vehicle id="car_274" type="typeCar" route="WE" depart="633"/>
    <vehicle id="car_275" type="typeCar" route="WE" depart="638"/>
    <vehicle id="car_276" type="typeCar" route="WE" depart="641"/>
    <vehicle id="car_277" type="typeCar" route="SN" depart="642"/>
    <vehicle id="car_278" type="typeCar" route="EW" depart="643"/>
    <vehicle id="car_279" type="typeCar" route="WE" depart="649"/>
    <vehicle id="car_280" type="typeCar" route="EW" depart="649"/>
    <vehicle id="car_281" type="typeCar" route="WE" depart="651"/>
    <vehicle id="car_282" type="typeCar" route="WE" depart="655"/>
    <vehicle id="car_283" type="typeCar" route="EW" depart="656"/>
    <vehicle id="car_284" type="typeCar" route="SN" depart="659"/>
    <vehicle id="car_285" type="typeCar" route="SN" depart="664"/>
    <vehicle id="car_286" type="typeCar" route="EW" depart="665"/>
    <vehicle id="car_287" type="typeCar" route="EW" depart="666"/>
    <vehicle id="car_288" type="typeCar" route="SN" depart="668"/>
    <vehicle id="car_289" type="typeCar" route="NS" depart="669"/>
    <vehicle id="car_290" type="typeCar" route="NS" depart="672"/>
    <vehicle id="car_291" type="typeCar" route="WE" depart="674"/>
    <vehicle id="car_292" type="typeCar" route="EW" depart="676"/>
    <vehicle id="car_293" type="typeCar" route="NS" depart="679"/>
    <vehicle id="car_294" type="typeCar" route="EW" depart="681"/>
    <vehicle id="car_295" type="typeCar" route="NS" depart="682"/>
    <vehicle id="car_296" type="typeCar" route="WE" depart="686"/>
    <vehicle id="car_297" type="typeCar" route="WE" depart="692"/>
    <vehicle id="car_298" type="typeCar" route="EW" depart="693"/>
    <vehicle id="car_299" type="typeCar" route="EW" depart="695"/>
    <vehicle id="car_300" type="typeCar" route="WE" depart="699"/>
    <vehicle id="car_301" type="typeCar" route="EW" depart="701"/>
    <vehicle id="car_302" type="typeCar" route="EW" depart="707"/>
    <vehicle id="car_303" type="typeCar" route="EW" depart="711"/>
    <vehicle id="car_304" type="typeCar" route="WE" depart="713"/>
    <vehicle id="car_305" type="typeCar" route="EW" depart="714"/>
    <vehicle id="car_306" type="typeCar" route="NS" depart="716"/>
    <vehicle id="car_307" type="typeCar" route="EW" depart="716"/>
    <vehicle id="car_308" type="typeCar" route="WE" depart="719"/>
    <vehicle id="car_309" type="typeCar" route="EW" depart="720"/>
    <vehicle id="car_310" type="typeCar" route="SN" depart="722"/>
    <vehicle id="car_311" type="typeCar" route="WE" depart="722"/>
    <vehicle id="car_312" type="typeCar" route="WE" depart="728"/>
    <vehicle id="car_313" type="typeCar" route="SN" depart="735"/>
    <vehicle id="car_314" type="typeCar" route="WE" depart="736"/>
    <vehicle id="car_315" type="typeCar" route="EW" depart="739"/>
    <vehicle id="car_316" type="typeCar" route="WE" depart="740"/>
    <vehicle id="car_317" type="typeCar" route="NS" depart="743"/>
    <vehicle id="car_318" type="typeCar" route="WE" depart="743"/>
    <vehicle id="car_319" type="typeCar" route="SN" depart="745"/>
    <vehicle id="car_320" type="typeCar" route="EW" depart="745"/>
    <vehicle id="car_321" type="typeCar" route="EW" depart="751"/>
    <vehicle id="car_322" type="typeCar" route="NS" depart="753"/>
    <vehicle id="car_323" type="typeCar" route="NS" depart="757"/>
    <vehicle id="car_324" type="typeCar" route="SN" depart="762"/>
    <vehicle id="car_325" type="typeCar" route="WE" depart="763"/>
    <vehicle id="car_326" type="typeCar" route="EW" depart="763"/>
    <vehicle id="car_327" type="typeCar" route="NS" depart="764"/>
    <vehicle id="car_328" type="typeCar" route="SN" depart="765"/>
    <vehicle id="car_329" type="typeCar" route="WE" depart="766"/>
    <vehicle id="car_330" type="typeCar" route="NS" depart="774"/>
    <vehicle id="car_331" type="typeCar" route="SN" depart="775"/>
    <vehicle id="car_332" type="typeCar" route="EW" depart="776"/>
    <vehicle id="car_333" type="typeCar" route="WE" depart="777"/>
    <vehicle id="car_334" type="typeCar" route="EW" depart="781"/>
    <vehicle id="car_335" type="typeCar" route="WE" depart="782"/>
    <vehicle id="car_336" type="typeCar" route="NS" depart="785"/>
    <vehicle id="car_337" type="typeCar" route="EW" depart="788"/>
    <vehicle id="car_338" type="typeCar" route="EW" depart="790"/>
    <vehicle id="car_339" type="typeCar" route="EW" depart="792"/>
    <vehicle id="car_340" type="typeCar" route="NS" depart="801"/>
    <vehicle id="car_341" type="typeCar" route="SN" depart="806"/>
    <vehicle id="car_342" type="typeCar" route="WE" depart="808"/>
    <vehicle id="car_343" type="typeCar" route="WE" depart="811"/>
    <vehicle id="car_344" type="typeCar" route="NS" depart="814"/>
    <vehicle id="car_345" type="typeCar" route="WE" depart="816"/>
    <vehicle id="car_346" type="typeCar" route="NS" depart="821"/>
    <vehicle id="car_347" type="typeCar" route="NS" depart="824"/>
    <vehicle id="car_348" type="typeCar" route="NS" depart="827"/>
    <vehicle id="car_349" type="typeCar" route="SN" depart="827"/>
    <vehicle id="car_350" type="typeCar" route="EW" depart="828"/>
    <vehicle id="car_351" type="typeCar" route="EW" depart="829"/>
    <vehicle id="car_352" type="typeCar" route="EW" depart="834"/>
    <vehicle id="car_353" type="typeCar" route="NS" depart="836"/>
    <vehicle id="car_354" type="typeCar" route="EW" depart="836"/>
    <vehicle id="car_355" type="typeCar" route="EW" depart="837"/>
    <vehicle id="car_356" type="typeCar" route="EW" depart="840"/>
    <vehicle id="car_357" type="typeCar" route="NS" depart="843"/>
    <vehicle id="car_358" type="typeCar" route="SN" depart="845"/>
    <vehicle id="car_359" type="typeCar" route="WE" depart="846"/>
    <vehicle id="car_360" type="typeCar" route="WE" depart="848"/>
    <vehicle id="car_361" type="typeCar" route="EW" depart="853"/>
    <vehicle id="car_362" type="typeCar" route="WE" depart="855"/>
    <vehicle id="car_363" type="typeCar" route="EW" depart="855"/>
    <vehicle id="car_364" type="typeCar" route="EW" depart="857"/>
    <vehicle id="car_365" type="typeCar" route="EW" depart="865"/>
    <vehicle id="car_366" type="typeCar" route="EW" depart="869"/>
    <vehicle id="car_367" type="typeCar" route="SN" depart="872"/>
    <vehicle id="car_368" type="typeCar" route="WE" depart="873"/>
    <vehicle id="car_369" type="typeCar" route="WE" depart="878"/>
    <vehicle id="car_370" type="typeCar" route="EW" depart="879"/>
    <vehicle id="car_371" type="typeCar" route="EW" depart="880"/>
    <vehicle id="car_372" type="typeCar" route="EW" depart="883"/>
    <vehicle id="car_373" type="typeCar" route="WE" depart="884"/>
    <vehicle id="car_374" type="typeCar" route="EW" depart="884"/>
    <vehicle id="car_375" type="typeCar" route="NS" depart="885"/>
    <vehicle id="car_376" type="typeCar" route="EW" depart="887"/>
    <vehicle id="car_377" type="typeCar" route="EW" depart="891"/>
    <vehicle id="car_378" type="typeCar" route="EW" depart="892"/>
    <vehicle id="car_379" type="typeCar" route="NS" depart="893"/>
    <vehicle id="car_380" type="typeCar" route="SN" depart="896"/>
    <vehicle id="car_381" type="typeCar" route="WE" depart="899"/>
    <vehicle id="car_382" type="typeCar" route="SN" depart="900"/>
    <vehicle id="car_383" type="typeCar" route="WE" depart="901"/>
    <vehicle id="car_384" type="typeCar" route="NS" depart="902"/>
    <vehicle id="car_385" type="typeCar" route="NS" depart="904"/>
    <vehicle id="car_386" type="typeCar" route="EW" depart="904"/>
    <vehicle id="car_387" type="typeCar" route="SN" depart="908"/>
    <vehicle id="car_388" type="typeCar" route="EW" depart="908"/>
    <vehicle id="car_389" type="typeCar" route="SN" depart="911"/>
    <vehicle id="car_390" type="typeCar" route="WE" depart="914"/>
    <vehicle id="car_391" type="typeCar" route="WE" depart="920"/>
    <vehicle id="car_392" type="typeCar" route="NS" depart="921"/>
    <vehicle id="car_393" type="typeCar" route="WE" depart="924"/>
    <vehicle id="car_394" type="typeCar" route="NS" depart="927"/>
    <vehicle id="car_395" type="typeCar" route="WE" depart="927"/>
    <vehicle id="car_396" type="typeCar" route="SN" depart="931"/>
    <vehicle id="car_397" type="typeCar" route="NS" depart="932"/>
    <vehicle id="car_398" type="typeCar" route="EW" depart="933"/>
    <vehicle id="car_399" type="typeCar" route="NS" depart="934"/>
    <vehicle id="car_400" type="typeCar" route="WE" depart="934"/>
    <vehicle id="car_401" type="typeCar" route="WE" depart="937"/>
    <vehicle id="car_402" type="typeCar" route="EW" depart="941"/>
    <vehicle id="car_403" type="typeCar" route="EW" depart="943"/>
    <vehicle id="car_404" type="typeCar" route="NS" depart="944"/>
    <vehicle id="car_405" type="typeCar" route="SN" depart="945"/>
    <vehicle id="car_406" type="typeCar" route="EW" depart="945"/>
    <vehicle id="car_407" type="typeCar" route="EW" depart="947"/>
    <vehicle id="car_408" type="typeCar" route="EW" depart="950"/>
    <vehicle id="car_409" type="typeCar" route="NS" depart="953"/>
    <vehicle id="car_410" type="typeCar" route="EW" depart="954"/>
    <vehicle id="car_411" type="typeCar" route="EW" depart="957"/>
    <vehicle id="car_412" type="typeCar" route="NS" depart="958"/>
    <vehicle id="car_413" type="typeCar" route="WE" depart="958"/>
    <vehicle id="car_414" type="typeCar" route="WE" depart="960"/>
    <vehicle id="car_415" type="typeCar" route="WE" depart="961"/>
    <vehicle id="car_416" type="typeCar" route="EW" depart="961"/>
    <vehicle id="car_417" type="typeCar" route="NS" depart="963"/>
    <vehicle id="car_418" type="typeCar" route="EW" depart="967"/>
    <vehicle id="car_419" type="typeCar" route="WE" depart="971"/>
    <vehicle id="car_420" type="typeCar" route="NS" depart="975"/>
    <vehicle id="car_421" type="typeCar" route="SN" depart="977"/>
    <vehicle id="car_422" type="typeCar" route="NS" depart="978"/>
    <vehicle id="car_423" type="typeCar" route="WE" depart="978"/>
    <vehicle id="car_424" type="typeCar" route="EW" depart="978"/>
    <vehicle id="car_425" type="typeCar" route="EW" depart="982"/>
    <vehicle id="car_426" type="typeCar" route="SN" depart="986"/>
    <vehicle id="car_427" type="typeCar" route="NS" depart="987"/>
    <vehicle id="car_428" type="typeCar" route="SN" depart="987"/>
    <vehicle id="car_429" type="typeCar" route="WE" depart="987"/>
    <vehicle id="car_430" type="typeCar" route="SN" depart="990"/>
    <vehicle id="car_431" type="typeCar" route="EW" depart="990"/>
    <vehicle id="car_432" type="typeCar" route="SN" depart="996"/>
    <vehicle id="car_433" type="typeCar" route="WE" depart="996"/>
    <vehicle id="car_434" type="typeCar" route="WE" depart="999"/>
    <vehicle id="car_435" type="typeCar" route="WE" depart="1007"/>
    <vehicle id="car_436" type="typeCar" route="WE" depart="1010"/>
    <vehicle id="car_437" type="typeCar" route="NS" depart="1014"/>
    <vehicle id="car_438" type="typeCar" route="NS" depart="1021"/>
    <vehicle id="car_439" type="typeCar" route="WE" depart="1022"/>
    <vehicle id="car_440" type="typeCar" route="WE" depart="1024"/>
    <vehicle id="car_441" type="typeCar" route="EW" depart="1029"/>
    <vehicle id="car_442" type="typeCar" route="EW" depart="1031"/>
    <vehicle id="car_443" type="typeCar" route="EW" depart="1032"/>
    <vehicle id="car_444" type="typeCar" route="EW" depart="1035"/>