<routes>
        <vType id="typeCar" accel="0.8" decel="4.5" sigma="0.5" length="5" minGap="2.5" maxSpeed="16.67" guiShape="passenger"/>

        <route id="NS" edges="n2A A2s" />
        <route id="WE" edges="w2A A2e" />
        <route id="SN" edges="s2A A2n" />
        <route id="EW" edges="e2A A2w" />
    <vehicle id="car_0" type="typeCar" route="EW" depart="0"/>
    <vehicle id="car_1" type="typeCar" route="NS" depart="6"/>
    <vehicle id="car_2" type="typeCar" route="EW" depart="9"/>
    <vehicle id="car_3" type="typeCar" route="EW" depart="11"/>
    <vehicle id="car_4" type="typeCar" route="EW" depart="12"/>
    <vehicle id="car_5" type="typeCar" route="WE" depart="15"/>
    <vehicle id="car_6" type="typeCar" route="EW" depart="15"/>
    <vehicle id="car_7" type="typeCar" route="NS" depart="19"/>
    <vehicle id="car_8" type="typeCar" route="WE" depart="20"/>
    <vehicle id="car_9" type="typeCar" route="EW" depart="20"/>
    <vehicle id="car_10" type="typeCar" route="WE" depart="23"/>
    <vehicle id="car_11" type="typeCar" route="WE" depart="33"/>
    <vehicle id="car_12" type="typeCar" route="EW" depart="35"/>
    <vehicle id="car_13" type="typeCar" route="NS" depart="38"/>
    <vehicle id="car_14" type="typeCar" route="EW" depart="38"/>
    <vehicle id="car_15" type="typeCar" route="NS" depart="42"/>
    <vehicle id="car_16" type="typeCar" route="EW" depart="44"/>
    <vehicle id="car_17" type="typeCar" route="SN" depart="45"/>
    <vehicle id="car_18" type="typeCar" route="EW" depart="47"/>
    <vehicle id="car_19" type="typeCar" route="EW" depart="52"/>
    <vehicle id="car_20" type="typeCar" route="EW" depart="54"/>
    <vehicle id="car_21" type="typeCar" route="NS" depart="55"/>
    <vehicle id="car_22" type="typeCar" route="WE" depart="55"/>
    <vehicle id="car_23" type="typeCar" route="NS" depart="58"/>
    <vehicle id="car_24" type="typeCar" route="WE" depart="58"/>
    <vehicle id="car_25" type="typeCar" route="EW" depart="59"/>
    <vehicle id="car_26" type="typeCar" route="NS" depart="60"/>
    <vehicle id="car_27" type="typeCar" route="EW" depart="70"/>
    <vehicle id="car_28" type="typeCar" route="WE" depart="71"/>
    <vehicle id="car_29" type="typeCar" route="WE" depart="72"/>
    <vehicle id="car_30" type="typeCar" route="WE" depart="77"/>
    <vehicle id="car_31" type="typeCar" route="NS" depart="79"/>
    <vehicle id="car_32" type="typeCar" route="EW" depart="79"/>
    <vehicle id="car_33" type="typeCar" route="EW" depart="82"/>
    <vehicle id="car_34" type="typeCar" route="SN" depart="83"/>
    <vehicle id="car_35" type="typeCar" route="WE" depart="86"/>
    <vehicle id="car_36" type="typeCar" route="NS" depart="92"/>
    <vehicle id="car_37" type="typeCar" route="WE" depart="96"/>
    <vehicle id="car_38" type="typeCar" route="WE" depart="102"/>
    <vehicle id="car_39" type="typeCar" route="EW" depart="105"/>
    <vehicle id="car_40" type="typeCar" route="WE" depart="106"/>
    <vehicle id="car_41" type="typeCar" route="WE" depart="110"/>
    <vehicle id="car_42" type="typeCar" route="EW" depart="110"/>
    <vehicle id="car_43" type="typeCar" route="WE" depart="112"/>
    <vehicle id="car_44" type="typeCar" route="EW" depart="112"/>
    <vehicle id="car_45" type="typeCar" route="EW" depart="116"/>
    <vehicle id="car_46" type="typeCar" route="WE" depart="117"/>
    <vehicle id="car_47" type="typeCar" route="WE" depart="120"/>
    <vehicle id="car_48" type="typeCar" route="SN" depart="123"/>
    <vehicle id="car_49" type="typeCar" route="WE" depart="123"/>
    <vehicle id="car_50" type="typeCar" route="WE" depart="124"/>
    <vehicle id="car_51" type="typeCar" route="SN" depart="125"/>
    <vehicle id="car_52" type="typeCar" route="WE" depart="127"/>
    <vehicle id="car_53" type="typeCar" route="WE" depart="129"/>
    <vehicle id="car_54" type="typeCar" route="WE" depart="131"/>
    <vehicle id="car_55" type="typeCar" route="EW" depart="131"/>
    <vehicle id="car_56" type="typeCar" route="WE" depart="132"/>
    <vehicle id="car_57" type="typeCar" route="EW" depart="134"/>
    <vehicle id="car_58" type="typeCar" route="EW" depart="135"/>
    <vehicle id="car_59" type="typeCar" route="NS" depart="138"/>
    <vehicle id="car_60" type="typeCar" route="WE" depart="140"/>
    <vehicle id="car_61" type="typeCar" route="EW" depart="141"/>
    <vehicle id="car_62" type="typeCar" route="WE" depart="143"/>
    <vehicle id="car_63" type="typeCar" route="EW" depart="144"/>
    <vehicle id="car_64" type="typeCar" route="WE" depart="148"/>
    <vehicle id="car_65" type="typeCar" route="WE" depart="150"/>
    <vehicle id="car_66" type="typeCar" route="EW" depart="153"/>
    <vehicle id="car_67" type="typeCar" route="WE" depart="159"/>
    <vehicle id="car_68" type="typeCar" route="NS" depart="162"/>
    <vehicle id="car_69" type="typeCar" route="WE" depart="162"/>
    <vehicle id="car_70" type="typeCar" route="SN" depart="163"/>
    <vehicle id="car_71" type="typeCar" route="WE" depart="166"/>
    <vehicle id="car_72" type="typeCar" route="EW" depart="166"/>
    <vehicle id="car_73" type="typeCar" route="NS" depart="169"/>
    <vehicle id="car_74" type="typeCar" route="NS" depart="173"/>
    <vehicle id="car_75" type="typeCar" route="EW" depart="174"/>
    <vehicle id="car_76" type="typeCar" route="WE" depart="177"/>
    <vehicle id="car_77" type="typeCar" route="NS" depart="186"/>
    <vehicle id="car_78" type="typeCar" route="EW" depart="186"/>
    <vehicle id="car_79" type="typeCar" route="EW" depart="195"/>
    <vehicle id="car_80" type="typeCar" route="SN" depart="200"/>
    <vehicle id="car_81" type="typeCar" route="WE" depart="200"/>
    <vehicle id="car_82" type="typeCar" route="EW" depart="202"/>
    <vehicle id="car_83" type="typeCar" route="EW" depart="210"/>
    <vehicle id="car_84" type="typeCar" route="WE" depart="217"/>
    <vehicle id="car_85" type="typeCar" route="WE" depart="219"/>
    <vehicle id="car_86" type="typeCar" route="WE" depart="224"/>
    <vehicle id="car_87" type="typeCar" route="SN" depart="225"/>
    <vehicle id="car_88" type="typeCar" route="EW" depart="227"/>
    <vehicle id="car_89" type="typeCar" route="NS" depart="233"/>
    <vehicle id="car_90" type="typeCar" route="SN" depart="237"/>
    <vehicle id="car_91" type="typeCar" route="WE" depart="241"/>
    <vehicle id="car_92" type="typeCar" route="WE" depart="243"/>
    <vehicle id="car_93" type="typeCar" route="EW" depart="251"/>
    <vehicle id="car_94" type="typeCar" route="NS" depart="256"/>
    <vehicle id="car_95" type="typeCar" route="NS" depart="258"/>
    <vehicle id="car_96" type="typeCar" route="EW" depart="261"/>
    <vehicle id="car_97" type="typeCar" route="SN" depart="272"/>
    <vehicle id="car_98" type="typeCar" route="WE" depart="273"/>
    <vehicle id="car_99" type="typeCar" route="EW" depart="276"/>
    <vehicle id="car_100" type="typeCar" route="EW" depart="279"/>
    <vehicle id="car_101" type="typeCar" route="EW" depart="283"/>
    <vehicle id="car_102" type="typeCar" route="NS" depart="285"/>
    <vehicle id="car_103" type="typeCar" route="EW" depart="286"/>
    <vehicle id="car_104" type="typeCar" route="NS" depart="287"/>
    <vehicle id="car_105" type="typeCar" route="SN" depart="287"/>
    <vehicle id="car_106" type="typeCar" route="EW" depart="288"/>
    <vehicle id="car_107" type="typeCar" route="EW" depart="290"/>
    <vehicle id="car_108" type="typeCar" route="NS" depart="296"/>
    <vehicle id="car_109" type="typeCar" route="SN" depart="298"/>
    <vehicle id="car_110" type="typeCar" route="NS" depart="301"/>
    <vehicle id="car_111" type="typeCar" route="SN" depart="301"/>
    <vehicle id="car_112" type="typeCar" route="WE" depart="301"/>
    <vehicle id="car_113" type="typeCar" route="NS" depart="304"/>
    <vehicle id="car_114" type="typeCar" route="WE" depart="304"/>
    <vehicle id="car_115" type="typeCar" route="EW" depart="306"/>
    <vehicle id="car_116" type="typeCar" route="EW" depart="309"/>
    <vehicle id="car_117" type="typeCar" route="EW" depart="310"/>
    <vehicle id="car_118" type="typeCar" route="EW" depart="318"/>
    <vehicle id="car_119" type="typeCar" route="NS" depart="319"/>
    <vehicle id="car_120" type="typeCar" route="NS" depart="322"/>
    <vehicle id="car_121" type="typeCar" route="WE" depart="322"/>
    <vehicle id="car_122" type="typeCar" route="NS" depart="323"/>
    <vehicle id="car_123" type="typeCar" route="SN" depart="324"/>
    <vehicle id="car_124" type="typeCar" route="NS" depart="325"/>
    <vehicle id="car_125" type="typeCar" route="EW" depart="325"/>
    <vehicle id="car_126" type="typeCar" route="EW" depart="326"/>
    <vehicle id="car_127" type="typeCar" route="SN" depart="327"/>
    <vehicle id="car_128" type="typeCar" route="EW" depart="329"/>
    <vehicle id="car_129" type="typeCar" route="NS" depart="330"/>
    <vehicle id="car_130" type="typeCar" route="SN" depart="332"/>
    <vehicle id="car_131" type="typeCar" route="WE" depart="332"/>
    <vehicle id="car_132" type="typeCar" route="EW" depart="337"/>
    <vehicle id="car_133" type="typeCar" route="EW" depart="342"/>
    <vehicle id="car_134" type="typeCar" route="WE" depart="343"/>
    <vehicle id="car_135" type="typeCar" route="WE" depart="344"/>
    <vehicle id="car_136" type="typeCar" route="WE" depart="346"/>
    <vehicle id="car_137" type="typeCar" route="EW" depart="346"/>
    <vehicle id="car_138" type="typeCar" route="EW" depart="349"/>
    <vehicle id="car_139" type="typeCar" route="EW" depart="350"/>
    <vehicle id="car_140" type="typeCar" route="WE" depart="357"/>
    <vehicle id="car_141" type="typeCar" route="NS" depart="358"/>
    <vehicle id="car_142" type="typeCar" route="WE" depart="359"/>
    <vehicle id="car_143" type="typeCar" route="WE" depart="360"/>
    <vehicle id="car_144" type="typeCar" route="EW" depart="369"/>
    <vehicle id="car_145" type="typeCar" route="EW" depart="371"/>
    <vehicle id="car_146" type="typeCar" route="EW" depart="374"/>
    <vehicle id="car_147" type="typeCar" route="NS" depart="378"/>
    <vehicle id="car_148" type="typeCar" route="SN" depart="378"/>
    <vehicle id="car_149" type="typeCar" route="WE" depart="379"/>
    <vehicle id="car_150" type="typeCar" route="SN" depart="381"/>
    <vehicle id="car_151" type="typeCar" route="WE" depart="383"/>
    <vehicle id="car_152" type="typeCar" route="EW" depart="384"/>
    <vehicle id="car_153" type="typeCar" route="WE" depart="387"/>
    <vehicle id="car_154" type="typeCar" route="EW" depart="387"/>
    <vehicle id="car_155" type="typeCar" route="EW" depart="388"/>
    <vehicle id="car_156" type="typeCar" route="NS" depart="393"/>
    <vehicle id="car_157" type="typeCar" route="WE" depart="394"/>
    <vehicle id="car_158" type="typeCar" route="EW" depart="395"/>
    <vehicle id="car_159" type="typeCar" route="EW" depart="396"/>
    <vehicle id="car_160" type="typeCar" route="WE" depart="397"/>
    <vehicle id="car_161" type="typeCar" route="SN" depart="398"/>
    <vehicle id="car_162" type="typeCar" route="NS" depart="399"/>
    <vehicle id="car_163" type="typeCar" route="EW" depart="399"/>
    <vehicle id="car_164" type="typeCar" route="WE" depart="400"/>
    <vehicle id="car_165" type="typeCar" route="EW" depart="402"/>
    <vehicle id="car_166" type="typeCar" route="EW" depart="405"/>
    <vehicle id="car_167" type="typeCar" route="WE" depart="406"/>
    <vehicle id="car_168" type="typeCar" route="EW" depart="406"/>
    <vehicle id="car_169" type="typeCar" route="WE" depart="408"/>
    <vehicle id="car_170" type="typeCar" route="WE" depart="410"/>
    <vehicle id="car_171" type="typeCar" route="NS" depart="411"/>
    <vehicle id="car_172" type="typeCar" route="WE" depart="411"/>
    <vehicle id="car_173" type="typeCar" route="NS" depart="416"/>
    <vehicle id="car_174" type="typeCar" route="EW" depart="416"/>
    <vehicle id="car_175" type="typeCar" route="WE" depart="417"/>
    <vehicle id="car_176" type="typeCar" route="WE" depart="418"/>
    <vehicle id="car_177" type="typeCar" route="WE" depart="423"/>
    <vehicle id="car_178" type="typeCar" route="WE" depart="424"/>
    <vehicle id="car_179" type="typeCar" route="WE" depart="426"/>
    <vehicle id="car_180" type="typeCar" route="NS" depart="427"/>
    <vehicle id="car_181" type="typeCar" route="NS" depart="428"/>
    <vehicle id="car_182" type="typeCar" route="WE" depart="432"/>
    <vehicle id="car_183" type="typeCar" route="NS" depart="435"/>
    <vehicle id="car_184" type="typeCar" route="NS" depart="438"/>
    <vehicle id="car_185" type="typeCar" route="EW" depart="439"/>
    <vehicle id="car_186" type="typeCar" route="WE" depart="440"/>
    <vehicle id="car_187" type="typeCar" route="SN" depart="441"/>
    <vehicle id="car_188" type="typeCar" route="WE" depart="446"/>
    <vehicle id="car_189" type="typeCar" route="EW" depart="447"/>
    <vehicle id="car_190" type="typeCar" route="EW" depart="450"/>
    <vehicle id="car_191" type="typeCar" route="NS" depart="451"/>
    <vehicle id="car_192" type="typeCar" route="EW" depart="453"/>
    <vehicle id="car_193" type="typeCar" route="WE" depart="457"/>
    <vehicle id="car_194" type="typeCar" route="WE" depart="459"/>
    <vehicle id="car_195" type="typeCar" route="EW" depart="460"/>
    <vehicle id="car_196" type="typeCar" route="EW" depart="465"/>
    <vehicle id="car_197" type="typeCar" route="NS" depart="469"/>
    <vehicle id="car_198" type="typeCar" route="WE" depart="470"/>
    <vehicle id="car_199" type="typeCar" route="NS" depart="471"/>
    <vehicle id="car_200" type="typeCar" route="SN" depart="471"/>
    <vehicle id="car_201" type="typeCar" route="WE" depart="471"/>
    <vehicle id="car_202" type="typeCar" route="NS" depart="474"/>
    <vehicle id="car_203" type="typeCar" route="SN" depart="479"/>
    <vehicle id="car_204" type="typeCar" route="WE" depart="480"/>
    <vehicle id="car_205" type="typeCar" route="EW" depart="480"/>
    <vehicle id="car_206" type="typeCar" route="NS" depart="481"/>
    <vehicle id="car_207" type="typeCar" route="WE" depart="482"/>
    <vehicle id="car_208" type="typeCar" route="SN" depart="483"/>
    <vehicle id="car_209" type="typeCar" route="WE" depart="488"/>
    <vehicle id="car_210" type="typeCar" route="WE" depart="489"/>
    <vehicle id="car_211" type="typeCar" route="EW" depart="489"/>
    <vehicle id="car_212" type="typeCar" route="WE" depart="490"/>
    <vehicle id="car_213" type="typeCar" route="WE" depart="495"/>
    <vehicle id="car_214" type="typeCar" route="SN" depart="496"/>
    <vehicle id="car_215" type="typeCar" route="EW" depart="496"/>
</routes>
