<routes>
        <vType id="typeCar" accel="0.8" decel="4.5" sigma="0.5" length="5" minGap="2.5" maxSpeed="16.67" guiShape="passenger"/>

        <route id="NS" edges="n2A A2s" />
        <route id="WE" edges="w2A A2e" />
        <route id="SN" edges="s2A A2n" />
        <route id="EW" edges="e2A A2w" />
    <vehicle id="car_0" type="typeCar" route="EW" depart="0"/>
    <vehicle id="car_1" type="typeCar" route="WE" depart="1"/>
    <vehicle id="car_2" type="typeCar" route="NS" depart="2"/>
    <vehicle id="car_3" type="typeCar" route="WE" depart="4"/>
    <vehicle id="car_4" type="typeCar" route="NS" depart="6"/>
    <vehicle id="car_5" type="typeCar" route="NS" depart="10"/>
    <vehicle id="car_6" type="typeCar" route="EW" depart="12"/>
    <vehicle id="car_7" type="typeCar" route="WE" depart="13"/>
    <vehicle id="car_8" type="typeCar" route="WE" depart="20"/>
    <vehicle id="car_9" type="typeCar" route="SN" depart="21"/>
    <vehicle id="car_10" type="typeCar" route="WE" depart="21"/>
    <vehicle id="car_11" type="typeCar" route="NS" depart="26"/>
    <vehicle id="car_12" type="typeCar" route="WE" depart="30"/>
    <vehicle id="car_13" type="typeCar" route="WE" depart="31"/>
    <vehicle id="car_14" type="typeCar" route="WE" depart="32"/>
    <vehicle id="car_15" type="typeCar" route="EW" depart="33"/>
    <vehicle id="car_16" type="typeCar" route="WE" depart="35"/>
    <vehicle id="car_17" type="typeCar" route="NS" depart="37"/>
    <vehicle id="car_18" type="typeCar" route="WE" depart="49"/>
    <vehicle id="car_19" type="typeCar" route="EW" depart="51"/>
    <vehicle id="car_20" type="typeCar" route="NS" depart="55"/>
    <vehicle id="car_21" type="typeCar" route="WE" depart="57"/>
    <vehicle id="car_22" type="typeCar" route="WE" depart="61"/>
    <vehicle id="car_23" type="typeCar" route="WE" depart="64"/>
    <vehicle id="car_24" type="typeCar" route="WE" depart="68"/>
    <vehicle id="car_25" type="typeCar" route="WE" depart="75"/>
    <vehicle id="car_26" type="typeCar" route="EW" depart="81"/>
    <vehicle id="car_27" type="typeCar" route="SN" depart="82"/>
    <vehicle id="car_28" type="typeCar" route="EW" depart="82"/>
    <vehicle id="car_29" type="typeCar" route="EW" depart="83"/>
    <vehicle id="car_30" type="typeCar" route="EW" depart="84"/>
    <vehicle id="car_31" type="typeCar" route="SN" depart="85"/>
    <vehicle id="car_32" type="typeCar" route="SN" depart="88"/>
    <vehicle id="car_33" type="typeCar" route="WE" depart="88"/>
    <vehicle id="car_34" type="typeCar" route="EW" depart="89"/>
    <vehicle id="car_35" type="typeCar" route="EW" depart="90"/>
    <vehicle id="car_36" type="typeCar" route="SN" depart="96"/>
    <vehicle id="car_37" type="typeCar" route="WE" depart="96"/>
    <vehicle id="car_38" type="typeCar" route="EW" depart="97"/>
    <vehicle id="car_39" type="typeCar" route="EW" depart="98"/>
</routes>
