<routes>
        <vType id="typeCar" accel="0.8" decel="4.5" sigma="0.5" length="5" minGap="2.5" maxSpeed="16.67" guiShape="passenger"/>

        <route id="NS" edges="n2A A2s" />
        <route id="WE" edges="w2A A2e" />
        <route id="SN" edges="s2A A2n" />
        <route id="EW" edges="e2A A2w" />
    <vehicle id="car_0" type="typeCar" route="EW" depart="1"/>
    <vehicle id="car_1" type="typeCar" route="SN" depart="2"/>
    <vehicle id="car_2" type="typeCar" route="EW" depart="3"/>
    <vehicle id="car_3" type="typeCar" route="WE" depart="4"/>
    <vehicle id="car_4" type="typeCar" route="EW" depart="10"/>
    <vehicle id="car_5" type="typeCar" route="EW" depart="12"/>
    <vehicle id="car_6" type="typeCar" route="SN" depart="13"/>
    <vehicle id="car_7" type="typeCar" route="NS" depart="15"/>
    <vehicle id="car_8" type="typeCar" route="WE" depart="16"/>
    <vehicle id="car_9" type="typeCar" route="EW" depart="16"/>
    <vehicle id="car_10" type="typeCar" route="EW" depart="17"/>
    <vehicle id="car_11" type="typeCar" route="NS" depart="27"/>
    <vehicle id="car_12" type="typeCar" route="WE" depart="27"/>
    <vehicle id="car_13" type="typeCar" route="WE" depart="29"/>
    <vehicle id="car_14" type="typeCar" route="NS" depart="33"/>
    <vehicle id="car_15" type="typeCar" route="EW" depart="36"/>
    <vehicle id="car_16" type="typeCar" route="NS" depart="38"/>
    <vehicle id="car_17" type="typeCar" route="EW" depart="41"/>
    <vehicle id="car_18" type="typeCar" route="WE" depart="48"/>
    <vehicle id="car_19" type="typeCar" route="NS" depart="49"/>
    <vehicle id="car_20" type="typeCar" route="WE" depart="54"/>
    <vehicle id="car_21" type="typeCar" route="WE" depart="57"/>
    <vehicle id="car_22" type="typeCar" route="SN" depart="58"/>
    <vehicle id="car_23" type="typeCar" route="WE" depart="58"/>
    <vehicle id="car_24" type="typeCar" route="WE" depart="60"/>
    <vehicle id="car_25" type="typeCar" route="EW" depart="61"/>
    <vehicle id="car_26" type="typeCar" route="NS" depart="62"/>
    <vehicle id="car_27" type="typeCar" route="EW" depart="68"/>
    <vehicle id="car_28" type="typeCar" route="EW" depart="71"/>
    <vehicle id="car_29" type="typeCar" route="SN" depart="73"/>
    <vehicle id="car_30" type="typeCar" route="EW" depart="74"/>
    <vehicle id="car_31" type="typeCar" route="WE" depart="76"/>
    <vehicle id="car_32" type="typeCar" route="NS" depart="81"/>
    <vehicle id="car_33" type="typeCar" route="EW" depart="81"/>
    <vehicle id="car_34" type="typeCar" route="WE" depart="83"/>
    <vehicle id="car_35" type="typeCar" route="WE" depart="84"/>
    <vehicle id="car_36" type="typeCar" route="NS" depart="92"/>
    <vehicle id="car_37" type="typeCar" route="EW" depart="98"/>
    <vehicle id="car_38" type="typeCar" route="SN" depart="100"/>
    <vehicle id="car_39" type="typeCar" route="NS" depart="101"/>
    <vehicle id="car_40" type="typeCar" route="NS" depart="102"/>
    <vehicle id="car_41" type="typeCar" route="NS" depart="103"/>
    <vehicle id="car_42" type="typeCar" route="SN" depart="106"/>
    <vehicle id="car_43" type="typeCar" route="EW" depart="106"/>
    <vehicle id="car_44" type="typeCar" route="SN" depart="108"/>
    <vehicle id="car_45" type="typeCar" route="WE" depart="108"/>
    <vehicle id="car_46" type="typeCar" route="SN" depart="111"/>
    <vehicle id="car_47" type="typeCar" route="EW" depart="112"/>
    <vehicle id="car_48" type="typeCar" route="WE" depart="116"/>
    <vehicle id="car_49" type="typeCar" route="WE" depart="117"/>
    <vehicle id="car_50" type="typeCar" route="EW" depart="117"/>
    <vehicle id="car_51" type="typeCar" route="WE" depart="119"/>
    <vehicle id="car_52" type="typeCar" route="EW" depart="121"/>
    <vehicle id="car_53" type="typeCar" route="EW" depart="123"/>
    <vehicle id="car_54" type="typeCar" route="WE" depart="124"/>
    <vehicle id="car_55" type="typeCar" route="NS" depart="125"/>
    <vehicle id="car_56" type="typeCar" route="WE" depart="131"/>
    <vehicle id="car_57" type="typeCar" route="EW" depart="134"/>
    <vehicle id="car_58" type="typeCar" route="WE" depart="138"/>
    <vehicle id="car_59" type="typeCar" route="NS" depart="139"/>
    <vehicle id="car_60" type="typeCar" route="SN" depart="141"/>
    <vehicle id="car_61" type="typeCar" route="WE" depart="143"/>
    <vehicle id="car_62" type="typeCar" route="EW" depart="145"/>
    <vehicle id="car_63" type="typeCar" route="WE" depart="146"/>
    <vehicle id="car_64" type="typeCar" route="NS" depart="155"/>
    <vehicle id="car_65" type="typeCar" route="SN" depart="158"/>
    <vehicle id="car_66" type="typeCar" route="EW" depart="169"/>
    <vehicle id="car_67" type="typeCar" route="NS" depart="176"/>
    <vehicle id="car_68" type="typeCar" route="WE" depart="180"/>
    <vehicle id="car_69" type="typeCar" route="EW" depart="182"/>
    <vehicle id="car_70" type="typeCar" route="SN" depart="184"/>
    <vehicle id="car_71" type="typeCar" route="WE" depart="190"/>
    <vehicle id="car_72" type="typeCar" route="EW" depart="191"/>
    <vehicle id="car_73" type="typeCar" route="NS" depart="193"/>
    <vehicle id="car_74" type="typeCar" route="WE" depart="194"/>
    <vehicle id="car_75" type="typeCar" route="EW" depart="195"/>
    <vehicle id="car_76" type="typeCar" route="EW" depart="198"/>
    <vehicle id="car_77" type="typeCar" route="WE" depart="199"/>
    <vehicle id="car_78" type="typeCar" route="EW" depart="199"/>
    <vehicle id="car_79" type="typeCar" route="EW" depart="203"/>
    <vehicle id="car_80" type="typeCar" route="WE" depart="208"/>
    <vehicle id="car_81" type="typeCar" route="EW" depart="208"/>
    <vehicle id="car_82" type="typeCar" route="SN" depart="213"/>
    <vehicle id="car_83" type="typeCar" route="WE" depart="213"/>
    <vehicle id="car_84" type="typeCar" route="WE" depart="214"/>
    <vehicle id="car_85" type="typeCar" route="NS" depart="215"/>
    <vehicle id="car_86" type="typeCar" route="WE" depart="218"/>
    <vehicle id="car_87" type="typeCar" route="WE" depart="223"/>
    <vehicle id="car_88" type="typeCar" route="NS" depart="224"/>
    <vehicle id="car_89" type="typeCar" route="EW" depart="224"/>
    <vehicle id="car_90" type="typeCar" route="EW" depart="225"/>
    <vehicle id="car_91" type="typeCar" route="WE" depart="226"/>
    <vehicle id="car_92" type="typeCar" route="WE" depart="228"/>
    <vehicle id="car_93" type="typeCar" route="EW" depart="228"/>
    <vehicle id="car_94" type="typeCar" route="WE" depart="230"/>
    <vehicle id="car_95" type="typeCar" route="NS" depart="231"/>
    <vehicle id="car_96" type="typeCar" route="NS" depart="234"/>
    <vehicle id="car_97" type="typeCar" route="EW" depart="234"/>
    <vehicle id="car_98" type="typeCar" route="NS" depart="235"/>
    <vehicle id="car_99" type="typeCar" route="EW" depart="235"/>
    <vehicle id="car_100" type="typeCar" route="WE" depart="236"/>
    <vehicle id="car_101" type="typeCar" route="EW" depart="239"/>
    <vehicle id="car_102" type="typeCar" route="WE" depart="242"/>
    <vehicle id="car_103" type="typeCar" route="EW" depart="246"/>
    <vehicle id="car_104" type="typeCar" route="EW" depart="248"/>
    <vehicle id="car_105" type="typeCar" route="EW" depart="251"/>
    <vehicle id="car_106" type="typeCar" route="WE" depart="252"/>
    <vehicle id="car_107" type="typeCar" route="EW" depart="254"/>
    <vehicle id="car_108" type="typeCar" route="NS" depart="255"/>
    <vehicle id="car_109" type="typeCar" route="WE" depart="255"/>
    <vehicle id="car_110" type="typeCar" route="SN" depart="256"/>
    <vehicle id="car_111" type="typeCar" route="WE" depart="256"/>
    <vehicle id="car_112" type="typeCar" route="EW" depart="257"/>
    <vehicle id="car_113" type="typeCar" route="EW" depart="260"/>
    <vehicle id="car_114" type="typeCar" route="EW" depart="262"/>
    <vehicle id="car_115" type="typeCar" route="WE" depart="263"/>
    <vehicle id="car_116" type="typeCar" route="NS" depart="268"/>
    <vehicle id="car_117" type="typeCar" route="EW" depart="269"/>
    <vehicle id="car_118" type="typeCar" route="NS" depart="270"/>
    <vehicle id="car_119" type="typeCar" route="NS" depart="277"/>
    <vehicle id="car_120" type="typeCar" route="WE" depart="280"/>
    <vehicle id="car_121" type="typeCar" route="WE" depart="281"/>
    <vehicle id="car_122" type="typeCar" route="WE" depart="282"/>
    <vehicle id="car_123" type="typeCar" route="SN" depart="286"/>
    <vehicle id="car_124" type="typeCar" route="NS" depart="288"/>
    <vehicle id="car_125" type="typeCar" route="NS" depart="293"/>
    <vehicle id="car_126" type="typeCar" route="WE" depart="297"/>
    <vehicle id="car_127" type="typeCar" route="NS" depart="298"/>
    <vehicle id="car_128" type="typeCar" route="EW" depart="300"/>
    <vehicle id="car_129" type="typeCar" route="EW" depart="304"/>
    <vehicle id="car_130" type="typeCar" route="WE" depart="305"/>
    <vehicle id="car_131" type="typeCar" route="NS" depart="306"/>
    <vehicle id="car_132" type="typeCar" route="SN" depart="314"/>
    <vehicle id="car_133" type="typeCar" route="NS" depart="315"/>
    <vehicle id="car_134" type="typeCar" route="WE" depart="323"/>
    <vehicle id="car_135" type="typeCar" route="SN" depart="325"/>
    <vehicle id="car_136" type="typeCar" route="EW" depart="325"/>
    <vehicle id="car_137" type="typeCar" route="NS" depart="327"/>
    <vehicle id="car_138" type="typeCar" route="WE" depart="327"/>
    <vehicle id="car_139" type="typeCar" route="EW" depart="331"/>
    <vehicle id="car_140" type="typeCar" route="EW" depart="334"/>
    <vehicle id="car_141" type="typeCar" route="WE" depart="342"/>
    <vehicle id="car_142" type="typeCar" route="EW" depart="342"/>
    <vehicle id="car_143" type="typeCar" route="NS" depart="343"/>
    <vehicle id="car_144" type="typeCar" route="EW" depart="343"/>
    <vehicle id="car_145" type="typeCar" route="WE" depart="344"/>
    <vehicle id="car_146" type="typeCar" route="NS" depart="348"/>
    <vehicle id="car_147" type="typeCar" route="WE" depart="349"/>
    <vehicle id="car_148" type="typeCar" route="NS" depart="351"/>
    <vehicle id="car_149" type="typeCar" route="WE" depart="351"/>
    <vehicle id="car_150" type="typeCar" route="SN" depart="355"/>
    <vehicle id="car_151" type="typeCar" route="WE" depart="355"/>
    <vehicle id="car_152" type="typeCar" route="WE" depart="357"/>
    <vehicle id="car_153" type="typeCar" route="SN" depart="359"/>
    <vehicle id="car_154" type="typeCar" route="WE" depart="360"/>
    <vehicle id="car_155" type="typeCar" route="WE" depart="364"/>
    <vehicle id="car_156" type="typeCar" route="EW" depart="369"/>
    <vehicle id="car_157" type="typeCar" route="NS" depart="370"/>
    <vehicle id="car_158" type="typeCar" route="WE" depart="378"/>
    <vehicle id="car_159" type="typeCar" route="WE" depart="379"/>
    <vehicle id="car_160" type="typeCar" route="SN" depart="382"/>
    <vehicle id="car_161" type="typeCar" route="WE" depart="382"/>
    <vehicle id="car_162" type="typeCar" route="EW" depart="387"/>
    <vehicle id="car_163" type="typeCar" route="EW" depart="388"/>
    <vehicle id="car_164" type="typeCar" route="SN" depart="390"/>
    <vehicle id="car_165" type="typeCar" route="EW" depart="390"/>
    <vehicle id="car_166" type="typeCar" route="NS" depart="395"/>
    <vehicle id="car_167" type="typeCar" route="WE" depart="396"/>
    <vehicle id="car_168" type="typeCar" route="SN" depart="398"/>
    <vehicle id="car_169" type="typeCar" route="SN" depart="401"/>
    <vehicle id="car_170" type="typeCar" route="EW" depart="402"/>
    <vehicle id="car_171" type="typeCar" route="SN" depart="406"/>
    <vehicle id="car_172" type="typeCar" route="SN" depart="411"/>
    <vehicle id="car_173" type="typeCar" route="SN" depart="414"/>
    <vehicle id="car_174" type="typeCar" route="WE" depart="414"/>
    <vehicle id="car_175" type="typeCar" route="EW" depart="416"/>
    <vehicle id="car_176" type="typeCar" route="EW" depart="417"/>
    <vehicle id="car_177" type="typeCar" route="EW" depart="421"/>
    <vehicle id="car_178" type="typeCar" route="WE" depart="424"/>
    <vehicle id="car_179" type="typeCar" route="EW" depart="427"/>
    <vehicle id="car_180" type="typeCar" route="EW" depart="429"/>
    <vehicle id="car_181" type="typeCar" route="NS" depart="434"/>
    <vehicle id="car_182" type="typeCar" route="NS" depart="440"/>
    <vehicle id="car_183" type="typeCar" route="EW" depart="440"/>
    <vehicle id="car_184" type="typeCar" route="WE" depart="444"/>
    <vehicle id="car_185" type="typeCar" route="EW" depart="451"/>
    <vehicle id="car_186" type="typeCar" route="EW" depart="452"/>
    <vehicle id="car_187" type="typeCar" route="EW" depart="453"/>
    <vehicle id="car_188" type="typeCar" route="EW" depart="455"/>
    <vehicle id="car_189" type="typeCar" route="EW" depart="462"/>
    <vehicle id="car_190" type="typeCar" route="NS" depart="463"/>
    <vehicle id="car_191" type="typeCar" route="EW" depart="464"/>
    <vehicle id="car_192" type="typeCar" route="EW" depart="466"/>
    <vehicle id="car_193" type="typeCar" route="EW" depart="468"/>
    <vehicle id="car_194" type="typeCar" route="NS" depart="477"/>
    <vehicle id="car_195" type="typeCar" route="EW" depart="479"/>
    <vehicle id="car_196" type="typeCar" route="EW" depart="485"/>
    <vehicle id="car_197" type="typeCar" route="EW" depart="486"/>
    <vehicle id="car_198" type="typeCar" route="WE" depart="489"/>
    <vehicle id="car_199" type="typeCar" route="NS" depart="491"/>
    <vehicle id="car_200" type="typeCar" route="EW" depart="492"/>
    <vehicle id="car_201" type="typeCar" route="EW" depart="493"/>
    <vehicle id="car_202" type="typeCar" route="WE" depart="494"/>
    <vehicle id="car_203" type="typeCar" route="WE" depart="496"/>
    <vehicle id="car_204" type="typeCar" route="EW" depart="497"/>
    <vehicle id="car_205" type="typeCar" route="NS" depart="506"/>
    <vehicle id="car_206" type="typeCar" route="WE" depart="506"/>
    <vehicle id="car_207" type="typeCar" route="NS" depart="508"/>
    <vehicle id="car_208" type="typeCar" route="WE" depart="510"/>
    <vehicle id="car_209" type="typeCar" route="EW" depart="512"/>
    <vehicle id="car_210" type="typeCar" route="NS" depart="513"/>
    <vehicle id="car_211" type="typeCar" route="EW" depart="514"/>
    <vehicle id="car_212" type="typeCar" route="WE" depart="515"/>
    <vehicle id="car_213" type="typeCar" route="EW" depart="515"/>
    <vehicle id="car_214" type="typeCar" route="WE" depart="516"/>
    <vehicle id="car_215" type="typeCar" route="NS" depart="518"/>
    <vehicle id="car_216" type="typeCar" route="WE" depart="522"/>
    <vehicle id="car_217" type="typeCar" route="EW" depart="525"/>
    <vehicle id="car_218" type="typeCar" route="NS" depart="530"/>
    <vehicle id="car_219" type="typeCar" route="EW" depart="532"/>
    <vehicle id="car_220" type="typeCar" route="EW" depart="534"/>
    <vehicle id="car_221" type="typeCar" route="WE" depart="540"/>
    <vehicle id="car_222" type="typeCar" route="EW" depart="541"/>
    <vehicle id="car_223" type="typeCar" route="WE" depart="543"/>
    <vehicle id="car_224" type="typeCar" route="SN" depart="544"/>
    <vehicle id="car_225" type="typeCar" route="WE" depart="544"/>
    <vehicle id="car_226" type="typeCar" route="EW" depart="544"/>
    <vehicle id="car_227" type="typeCar" route="WE" depart="545"/>
    <vehicle id="car_228" type="typeCar" route="EW" depart="546"/>
    <vehicle id="car_229" type="typeCar" route="NS" depart="555"/>
    <vehicle id="car_230" type="typeCar" route="WE" depart="557"/>
    <vehicle id="car_231" type="typeCar" route="EW" depart="561"/>
    <vehicle id="car_232" type="typeCar" route="EW" depart="562"/>
    <vehicle id="car_233" type="typeCar" route="WE" depart="564"/>
    <vehicle id="car_234" type="typeCar" route="SN" depart="565"/>
    <vehicle id="car_235" type="typeCar" route="WE" depart="566"/>
    <vehicle id="car_236" type="typeCar" route="EW" depart="566"/>
    <vehicle id="car_237" type="typeCar" route="EW" depart="569"/>
    <vehicle id="car_238" type="typeCar" route="EW" depart="570"/>
    <vehicle id="car_239" type="typeCar" route="EW" depart="571"/>
    <vehicle id="car_240" type="typeCar" route="NS" depart="573"/>
    <vehicle id="car_241" type="typeCar" route="NS" depart="574"/>
    <vehicle id="car_242" type="typeCar" route="WE" depart="575"/>
    <vehicle id="car_243" type="typeCar" route="NS" depart="576"/>
    <vehicle id="car_244" type="typeCar" route="WE" depart="576"/>
    <vehicle id="car_245" type="typeCar" route="EW" depart="577"/>
    <vehicle id="car_246" type="typeCar" route="WE" depart="579"/>
    <vehicle id="car_247" type="typeCar" route="EW" depart="581"/>
    <vehicle id="car_248" type="typeCar" route="WE" depart="582"/>
    <vehicle id="car_249" type="typeCar" route="WE" depart="585"/>
    <vehicle id="car_250" type="typeCar" route="WE" depart="590"/>
    <vehicle id="car_251" type="typeCar" route="EW" depart="590"/>
    <vehicle id="car_252" type="typeCar" route="NS" depart="596"/>
    <vehicle id="car_253" type="typeCar" route="EW" depart="597"/>
    <vehicle id="car_254" type="typeCar" route="NS" depart="599"/>
    <vehicle id="car_255" type="typeCar" route="WE" depart="600"/>
    <vehicle id="car_256" type="typeCar" route="EW" depart="602"/>
    <vehicle id="car_257" type="typeCar" route="EW" depart="608"/>
    <vehicle id="car_258" type="typeCar" route="EW" depart="609"/>
    <vehicle id="car_259" type="typeCar" route="EW" depart="612"/>
    <vehicle id="car_260" type="typeCar" route="NS" depart="614"/>
    <vehicle id="car_261" type="typeCar" route="SN" depart="618"/>
    <vehicle id="car_262" type="typeCar" route="WE" depart="619"/>
    <vehicle id="car_263" type="typeCar" route="SN" depart="620"/>
    <vehicle id="car_264" type="typeCar" route="EW" depart="624"/>
    <vehicle id="car_265" type="typeCar" route="NS" depart="625"/>
    <vehicle id="car_266" type="typeCar" route="SN" depart="629"/>
    <vehicle id="car_267" type="typeCar" route="WE" depart="630"/>
    <vehicle id="car_268" type="typeCar" route="NS" depart="636"/>
    <vehicle id="car_269" type="typeCar" route="NS" depart="639"/>
    <vehicle id="car_270" type="typeCar" route="SN" depart="639"/>
    <vehicle id="car_271" type="typeCar" route="EW" depart="640"/>
    <vehicle id="car_272" type="typeCar" route="EW" depart="646"/>
    <vehicle id="car_273" type="typeCar" route="WE" depart="652"/>
    <vehicle id="car_274" type="typeCar" route="SN" depart="654"/>
    <vehicle id="car_275" type="typeCar" route="EW" depart="654"/>
    <vehicle id="car_276" type="typeCar" route="WE" depart="658"/>
    <vehicle id="car_277" type="typeCar" route="SN" depart="665"/>
    <vehicle id="car_278" type="typeCar" route="WE" depart="666"/>
    <vehicle id="car_279" type="typeCar" route="SN" depart="668"/>
    <vehicle id="car_280" type="typeCar" route="WE" depart="668"/>
    <vehicle id="car_281" type="typeCar" route="EW" depart="669"/>
    <vehicle id="car_282" type="typeCar" route="EW" depart="670"/>
    <vehicle id="car_283" type="typeCar" route="EW" depart="673"/>
    <vehicle id="car_284" type="typeCar" route="NS" depart="677"/>
    <vehicle id="car_285" type="typeCar" route="WE" depart="679"/>
    <vehicle id="car_286" type="typeCar" route="EW" depart="680"/>
    <vehicle id="car_287" type="typeCar" route="SN" depart="681"/>
    <vehicle id="car_288" type="typeCar" route="EW" depart="681"/>
    <vehicle id="car_289" type="typeCar" route="NS" depart="686"/>
    <vehicle id="car_290" type="typeCar" route="EW" depart="690"/>
    <vehicle id="car_291" type="typeCar" route="NS" depart="695"/>
    <vehicle id="car_292" type="typeCar" route="SN" depart="696"/>
    <vehicle id="car_293" type="typeCar" route="EW" depart="698"/>
    <vehicle id="car_294" type="typeCar" route="SN" depart="700"/>
    <vehicle id="car_295" type="typeCar" route="EW" depart="700"/>
    <vehicle id="car_296" type="typeCar" route="EW" depart="704"/>
    <vehicle id="car_297" type="typeCar" route="WE" depart="706"/>
    <vehicle id="car_298" type="typeCar" route="WE" depart="708"/>
    <vehicle id="car_299" type="typeCar" route="WE" depart="709"/>
    <vehicle id="car_300" type="typeCar" route="NS" depart="710"/>
    <vehicle id="car_301" type="typeCar" route="EW" depart="712"/>
    <vehicle id="car_302" type="typeCar" route="WE" depart="715"/>
    <vehicle id="car_303" type="typeCar" route="EW" depart="716"/>
    <vehicle id="car_304" type="typeCar" route="WE" depart="719"/>
    <vehicle id="car_305" type="typeCar" route="EW" depart="720"/>
    <vehicle id="car_306" type="typeCar" route="EW" depart="721"/>
    <vehicle id="car_307" type="typeCar" route="SN" depart="725"/>
    <vehicle id="car_308" type="typeCar" route="NS" depart="728"/>
    <vehicle id="car_309" type="typeCar" route="SN" depart="729"/>
    <vehicle id="car_310" type="typeCar" route="WE" depart="732"/>
    <vehicle id="car_311" type="typeCar" route="EW" depart="732"/>
    <vehicle id="car_312" type="typeCar" route="NS" depart="734"/>
    <vehicle id="car_313" type="typeCar" route="SN" depart="734"/>
    <vehicle id="car_314" type="typeCar" route="NS" depart="736"/>
    <vehicle id="car_315" type="typeCar" route="EW" depart="737"/>
    <vehicle id="car_316" type="typeCar" route="EW" depart="740"/>
    <vehicle id="car_317" type="typeCar" route="NS" depart="742"/>
    <vehicle id="car_318" type="typeCar" route="WE" depart="743"/>
    <vehicle id="car_319" type="typeCar" route="NS" depart="744"/>
    <vehicle id="car_320" type="typeCar" route="WE" depart="745"/>
    <vehicle id="car_321" type="typeCar" route="EW" depart="745"/>
    <vehicle id="car_322" type="typeCar" route="EW" depart="746"/>
    <vehicle id="car_323" type="typeCar" route="WE" depart="748"/>
    <vehicle id="car_324" type="typeCar" route="EW" depart="748"/>
    <vehicle id="car_325" type="typeCar" route="EW" depart="752"/>
    <vehicle id="car_326" type="typeCar" route="NS" depart="753"/>
    <vehicle id="car_327" type="typeCar" route="SN" depart="754"/>
    <vehicle id="car_328" type="typeCar" route="WE" depart="755"/>
    <vehicle id="car_329" type="typeCar" route="NS" depart="756"/>
    <vehicle id="car_330" type="typeCar" route="NS" depart="759"/>
    <vehicle id="car_331" type="typeCar" route="SN" depart="759"/>
    <vehicle id="car_332" type="typeCar" route="WE" depart="759"/>
    <vehicle id="car_333" type="typeCar" route="WE" depart="766"/>
    <vehicle id="car_334" type="typeCar" route="NS" depart="767"/>
    <vehicle id="car_335" type="typeCar" route="WE" depart="771"/>
    <vehicle id="car_336" type="typeCar" route="NS" depart="773"/>
    <vehicle id="car_337" type="typeCar" route="NS" depart="775"/>
    <vehicle id="car_338" type="typeCar" route="WE" depart="778"/>
    <vehicle id="car_339" type="typeCar" route="EW" depart="780"/>
    <vehicle id="car_340" type="typeCar" route="SN" depart="782"/>
    <vehicle id="car_341" type="typeCar" route="WE" depart="782"/>
    <vehicle id="car_342" type="typeCar" route="EW" depart="782"/>
    <vehicle id="car_343" type="typeCar" route="SN" depart="784"/>
    <vehicle id="car_344" type="typeCar" route="WE" depart="786"/>
    <vehicle id="car_345" type="typeCar" route="SN" depart="787"/>
    <vehicle id="car_346" type="typeCar" route="EW" depart="789"/>
    <vehicle id="car_347" type="typeCar" route="NS" depart="790"/>
    <vehicle id="car_348" type="typeCar" route="WE" depart="795"/>
    <vehicle id="car_349" type="typeCar" route="NS" depart="805"/>
    <vehicle id="car_350" type="typeCar" route="EW" depart="808"/>
    <vehicle id="car_351" type="typeCar" route="NS" depart="814"/>
    <vehicle id="car_352" type="typeCar" route="WE" depart="814"/>
    <vehicle id="car_353" type="typeCar" route="WE" depart="816"/>
    <vehicle id="car_354" type="typeCar" route="EW" depart="817"/>
    <vehicle id="car_355" type="typeCar" route="EW" depart="826"/>
    <vehicle id="car_356" type="typeCar" route="WE" depart="827"/>
    <vehicle id="car_357" type="typeCar" route="NS" depart="829"/>
    <vehicle id="car_358" type="typeCar" route="EW" depart="829"/>
    <vehicle id="car_359" type="typeCar" route="NS" depart="830"/>
    <vehicle id="car_360" type="typeCar" route="EW" depart="831"/>
    <vehicle id="car_361" type="typeCar" route="EW" depart="832"/>
    <vehicle id="car_362" type="typeCar" route="EW" depart="836"/>
    <vehicle id="car_363" type="typeCar" route="EW" depart="837"/>
    <vehicle id="car_364" type="typeCar" route="EW" depart="841"/>
    <vehicle id="car_365" type="typeCar" route="WE" depart="842"/>
    <vehicle id="car_366" type="typeCar" route="WE" depart="844"/>
    <vehicle id="car_367" type="typeCar" route="SN" depart="846"/>
    <vehicle id="car_368" type="typeCar" route="NS" depart="849"/>
    <vehicle id="car_369" type="typeCar" route="NS" depart="850"/>
    <vehicle id="car_370" type="typeCar" route="WE" depart="851"/>
    <vehicle id="car_371" type="typeCar" route="WE" depart="855"/>
    <vehicle id="car_372" type="typeCar" route="WE" depart="859"/>
    <vehicle id="car_373" type="typeCar" route="SN" depart="860"/>
    <vehicle id="car_374" type="typeCar" route="WE" depart="860"/>
    <vehicle id="car_375" type="typeCar" route="WE" depart="862"/>
    <vehicle id="car_376" type="typeCar" route="WE" depart="863"/>
    <vehicle id="car_377" type="typeCar" route="WE" depart="867"/>
    <vehicle id="car_378" type="typeCar" route="EW" depart="867"/>
    <vehicle id="car_379" type="typeCar" route="NS" depart="868"/>
    <vehicle id="car_380" type="typeCar" route="EW" depart="869"/>
    <vehicle id="car_381" type="typeCar" route="NS" depart="871"/>
    <vehicle id="car_382" type="typeCar" route="NS" depart="872"/>
    <vehicle id="car_383" type="typeCar" route="WE" depart="874"/>
    <vehicle id="car_384" type="typeCar" route="WE" depart="875"/>
    <vehicle id="car_385" type="typeCar" route="NS" depart="878"/>
    <vehicle id="car_386" type="typeCar" route="NS" depart="881"/>
    <vehicle id="car_387" type="typeCar" route="EW" depart="881"/>
    <vehicle id="car_388" type="typeCar" route="EW" depart="882"/>
    <vehicle id="car_389" type="typeCar" route="WE" depart="888"/>
    <vehicle id="car_390" type="typeCar" route="NS" depart="894"/>
    <vehicle id="car_391" type="typeCar" route="WE" depart="895"/>
    <vehicle id="car_392" type="typeCar" route="NS" depart="896"/>
    <vehicle id="car_393" type="typeCar" route="EW" depart="902"/>
    <vehicle id="car_394" type="typeCar" route="EW" depart="906"/>
    <vehicle id="car_395" type="typeCar" route="NS" depart="908"/>
    <vehicle id="car_396" type="typeCar" route="EW" depart="908"/>
    <vehicle id="car_397" type="typeCar" route="SN" depart="909"/>
    <vehicle id="car_398" type="typeCar" route="EW" depart="909"/>
    <vehicle id="car_399" type="typeCar" route="EW" depart="913"/>
    <vehicle id="car_400" type="typeCar" route="SN" depart="916"/>
    <vehicle id="car_401" type="typeCar" route="NS" depart="920"/>
    <vehicle id="car_402" type="typeCar" route="SN" depart="920"/>
    <vehicle id="car_403" type="typeCar" route="NS" depart="921"/>
    <vehicle id="car_404" type="typeCar" route="WE" depart="923"/>
    <vehicle id="car_405" type="typeCar" route="EW" depart="923"/>
    <vehicle id="car_406" type="typeCar" route="NS" depart="927"/>
    <vehicle id="car_407" type="typeCar" route="EW" depart="930"/>
    <vehicle id="car_408" type="typeCar" route="EW" depart="932"/>
    <vehicle id="car_409" type="typeCar" route="EW" depart="933"/>
    <vehicle id="car_410" type="typeCar" route="EW" depart="936"/>
    <vehicle id="car_411" type="typeCar" route="EW" depart="939"/>
    <vehicle id="car_412" type="typeCar" route="WE" depart="940"/>
    <vehicle id="car_413" type="typeCar" route="SN" depart="941"/>
    <vehicle id="car_414" type="typeCar" route="SN" depart="943"/>
    <vehicle id="car_415" type="typeCar" route="WE" depart="946"/>
    <vehicle id="car_416" type="typeCar" route="NS" depart="952"/>
    <vehicle id="car_417" type="typeCar" route="WE" depart="961"/>
    <vehicle id="car_418" type="typeCar" route="EW" depart="961"/>
    <vehicle id="car_419" type="typeCar" route="EW" depart="962"/>
    <vehicle id="car_420" type="typeCar" route="NS" depart="966"/>
    <vehicle id="car_421" type="typeCar" route="EW" depart="971"/>
    <vehicle id="car_422" type="typeCar" route="EW" depart="974"/>
    <vehicle id="car_423" type="typeCar" route="WE" depart="976"/>
    <vehicle id="car_424" type="typeCar" route="NS" depart="980"/>
    <vehicle id="car_425" type="typeCar" route="WE" depart="990"/>
    <vehicle id="car_426" type="typeCar" route="SN" depart="993"/>
    <vehicle id="car_427" type="typeCar" route="SN" depart="1002"/>
    <vehicle id="car_428" type="typeCar" route="EW" depart="1002"/>
    <vehicle id="car_429" type="typeCar" route="EW" depart="1005"/>
    <vehicle id="car_430" type="typeCar" route="WE" depart="1006"/>
    <vehicle id="car_431" type="typeCar" route="SN" depart="1010"/>
    <vehicle id="car_432" type="typeCar" route="NS" depart="1014"/>
    <vehicle id="car_433" type="typeCar" route="WE" depart="1019"/>
    <vehicle id="car_434" type="typeCar" route="SN" depart="1020"/>
    <vehicle id="car_435" type="typeCar" route="NS" depart="1022"/>
    <vehicle id="car_436" type="typeCar" route="EW" depart="1022"/>
    <vehicle id="car_437" type="typeCar" route="NS" depart="1023"/>
    <vehicle id="car_438" type="typeCar" route="EW" depart="1026"/>
    <vehicle id="car_439" type="typeCar" route="EW" depart="1027"/>
    <vehicle id="car_440" type="typeCar" route="SN" depart="1028"/>
    <vehicle id="car_441" type="typeCar" route="EW" depart="1029"/>
    <vehicle id="car_442" type="typeCar" route="NS" depart="1032"/>
    <vehicle id="car_443" type="typeCar" route="WE" depart="1036"/>
    <vehicle id="car_444" type="typeCar" route="WE" depart="1042"/>