<routes>
        <vType id="typeCar" accel="0.8" decel="4.5" sigma="0.5" length="5" minGap="2.5" maxSpeed="16.67" guiShape="passenger"/>

        <route id="NS" edges="n2A A2s" />
        <route id="WE" edges="w2A A2e" />
        <route id="SN" edges="s2A A2n" />
        <route id="EW" edges="e2A A2w" />
    <vehicle id="car_0" type="typeCar" route="EW" depart="0"/>
    <vehicle id="car_1" type="typeCar" route="WE" depart="2"/>
    <vehicle id="car_2" type="typeCar" route="EW" depart="3"/>
    <vehicle id="car_3" type="typeCar" route="WE" depart="4"/>
    <vehicle id="car_4" type="typeCar" route="WE" depart="5"/>
    <vehicle id="car_5" type="typeCar" route="EW" depart="10"/>
    <vehicle id="car_6" type="typeCar" route="EW" depart="14"/>
    <vehicle id="car_7" type="typeCar" route="EW" depart="15"/>
    <vehicle id="car_8" type="typeCar" route="NS" depart="16"/>
    <vehicle id="car_9" type="typeCar" route="WE" depart="16"/>
    <vehicle id="car_10" type="typeCar" route="SN" depart="17"/>
    <vehicle id="car_11" type="typeCar" route="SN" depart="18"/>
    <vehicle id="car_12" type="typeCar" route="WE" depart="18"/>
    <vehicle id="car_13" type="typeCar" route="EW" depart="19"/>
    <vehicle id="car_14" type="typeCar" route="WE" depart="21"/>
    <vehicle id="car_15" type="typeCar" route="EW" depart="24"/>
    <vehicle id="car_16" type="typeCar" route="EW" depart="28"/>
    <vehicle id="car_17" type="typeCar" route="WE" depart="29"/>
    <vehicle id="car_18" type="typeCar" route="EW" depart="30"/>
    <vehicle id="car_19" type="typeCar" route="SN" depart="33"/>
    <vehicle id="car_20" type="typeCar" route="EW" depart="33"/>
    <vehicle id="car_21" type="typeCar" route="EW" depart="34"/>
    <vehicle id="car_22" type="typeCar" route="NS" depart="35"/>
    <vehicle id="car_23" type="typeCar" route="WE" depart="38"/>
    <vehicle id="car_24" type="typeCar" route="EW" depart="42"/>
    <vehicle id="car_25" type="typeCar" route="EW" depart="45"/>
    <vehicle id="car_26" type="typeCar" route="WE" depart="51"/>
    <vehicle id="car_27" type="typeCar" route="WE" depart="52"/>
    <vehicle id="car_28" type="typeCar" route="EW" depart="52"/>
    <vehicle id="car_29" type="typeCar" route="NS" depart="54"/>
    <vehicle id="car_30" type="typeCar" route="NS" depart="56"/>
    <vehicle id="car_31" type="typeCar" route="EW" depart="56"/>
    <vehicle id="car_32" type="typeCar" route="EW" depart="58"/>
    <vehicle id="car_33" type="typeCar" route="WE" depart="60"/>
    <vehicle id="car_34" type="typeCar" route="WE" depart="65"/>
    <vehicle id="car_35" type="typeCar" route="NS" depart="66"/>
    <vehicle id="car_36" type="typeCar" route="EW" depart="73"/>
    <vehicle id="car_37" type="typeCar" route="EW" depart="76"/>
    <vehicle id="car_38" type="typeCar" route="NS" depart="78"/>
    <vehicle id="car_39" type="typeCar" route="WE" depart="79"/>
    <vehicle id="car_40" type="typeCar" route="WE" depart="81"/>
    <vehicle id="car_41" type="typeCar" route="WE" depart="86"/>
    <vehicle id="car_42" type="typeCar" route="SN" depart="88"/>
    <vehicle id="car_43" type="typeCar" route="EW" depart="90"/>
    <vehicle id="car_44" type="typeCar" route="EW" depart="91"/>
    <vehicle id="car_45" type="typeCar" route="EW" depart="92"/>
    <vehicle id="car_46" type="typeCar" route="WE" depart="93"/>
    <vehicle id="car_47" type="typeCar" route="EW" depart="95"/>
    <vehicle id="car_48" type="typeCar" route="WE" depart="98"/>
    <vehicle id="car_49" type="typeCar" route="WE" depart="99"/>
    <vehicle id="car_50" type="typeCar" route="WE" depart="104"/>
    <vehicle id="car_51" type="typeCar" route="NS" depart="106"/>
    <vehicle id="car_52" type="typeCar" route="WE" depart="108"/>
    <vehicle id="car_53" type="typeCar" route="NS" depart="111"/>
    <vehicle id="car_54" type="typeCar" route="WE" depart="111"/>
    <vehicle id="car_55" type="typeCar" route="EW" depart="111"/>
    <vehicle id="car_56" type="typeCar" route="EW" depart="113"/>
    <vehicle id="car_57" type="typeCar" route="EW" depart="116"/>
    <vehicle id="car_58" type="typeCar" route="NS" depart="118"/>
    <vehicle id="car_59" type="typeCar" route="WE" depart="120"/>
    <vehicle id="car_60" type="typeCar" route="NS" depart="121"/>
    <vehicle id="car_61" type="typeCar" route="WE" depart="121"/>
    <vehicle id="car_62" type="typeCar" route="SN" depart="124"/>
    <vehicle id="car_63" type="typeCar" route="EW" depart="124"/>
    <vehicle id="car_64" type="typeCar" route="WE" depart="126"/>
    <vehicle id="car_65" type="typeCar" route="WE" depart="129"/>
    <vehicle id="car_66" type="typeCar" route="NS" depart="130"/>
    <vehicle id="car_67" type="typeCar" route="SN" depart="130"/>
    <vehicle id="car_68" type="typeCar" route="EW" depart="132"/>
    <vehicle id="car_69" type="typeCar" route="NS" depart="137"/>
    <vehicle id="car_70" type="typeCar" route="SN" depart="137"/>
    <vehicle id="car_71" type="typeCar" route="EW" depart="137"/>
    <vehicle id="car_72" type="typeCar" route="WE" depart="138"/>
    <vehicle id="car_73" type="typeCar" route="WE" depart="142"/>
    <vehicle id="car_74" type="typeCar" route="NS" depart="143"/>
    <vehicle id="car_75" type="typeCar" route="EW" depart="143"/>
    <vehicle id="car_76" type="typeCar" route="SN" depart="145"/>
    <vehicle id="car_77" type="typeCar" route="NS" depart="151"/>
    <vehicle id="car_78" type="typeCar" route="SN" depart="154"/>
    <vehicle id="car_79" type="typeCar" route="NS" depart="157"/>
    <vehicle id="car_80" type="typeCar" route="EW" depart="159"/>
    <vehicle id="car_81" type="typeCar" route="SN" depart="160"/>
    <vehicle id="car_82" type="typeCar" route="EW" depart="163"/>
    <vehicle id="car_83" type="typeCar" route="WE" depart="167"/>
    <vehicle id="car_84" type="typeCar" route="EW" depart="170"/>
    <vehicle id="car_85" type="typeCar" route="SN" depart="172"/>
    <vehicle id="car_86" type="typeCar" route="EW" depart="176"/>
    <vehicle id="car_87" type="typeCar" route="WE" depart="177"/>
    <vehicle id="car_88" type="typeCar" route="EW" depart="177"/>
    <vehicle id="car_89" type="typeCar" route="EW" depart="178"/>
    <vehicle id="car_90" type="typeCar" route="EW" depart="179"/>
    <vehicle id="car_91" type="typeCar" route="WE" depart="182"/>
    <vehicle id="car_92" type="typeCar" route="EW" depart="183"/>
    <vehicle id="car_93" type="typeCar" route="WE" depart="184"/>
    <vehicle id="car_94" type="typeCar" route="SN" depart="185"/>
    <vehicle id="car_95" type="typeCar" route="NS" depart="188"/>
    <vehicle id="car_96" type="typeCar" route="WE" depart="188"/>
    <vehicle id="car_97" type="typeCar" route="EW" depart="189"/>
    <vehicle id="car_98" type="typeCar" route="WE" depart="190"/>
    <vehicle id="car_99" type="typeCar" route="NS" depart="191"/>
    <vehicle id="car_100" type="typeCar" route="EW" depart="192"/>
    <vehicle id="car_101" type="typeCar" route="SN" depart="194"/>
    <vehicle id="car_102" type="typeCar" route="NS" depart="197"/>
    <vehicle id="car_103" type="typeCar" route="EW" depart="203"/>
    <vehicle id="car_104" type="typeCar" route="WE" depart="205"/>
    <vehicle id="car_105" type="typeCar" route="NS" depart="206"/>
    <vehicle id="car_106" type="typeCar" route="EW" depart="207"/>
    <vehicle id="car_107" type="typeCar" route="NS" depart="211"/>
    <vehicle id="car_108" type="typeCar" route="WE" depart="212"/>
    <vehicle id="car_109" type="typeCar" route="EW" depart="213"/>
    <vehicle id="car_110" type="typeCar" route="EW" depart="214"/>
    <vehicle id="car_111" type="typeCar" route="NS" depart="215"/>
    <vehicle id="car_112" type="typeCar" route="WE" depart="215"/>
    <vehicle id="car_113" type="typeCar" route="WE" depart="218"/>
    <vehicle id="car_114" type="typeCar" route="EW" depart="219"/>
    <vehicle id="car_115" type="typeCar" route="WE" depart="223"/>
    <vehicle id="car_116" type="typeCar" route="SN" depart="226"/>
    <vehicle id="car_117" type="typeCar" route="WE" depart="226"/>
    <vehicle id="car_118" type="typeCar" route="NS" depart="228"/>
    <vehicle id="car_119" type="typeCar" route="EW" depart="228"/>
    <vehicle id="car_120" type="typeCar" route="NS" depart="229"/>
    <vehicle id="car_121" type="typeCar" route="WE" depart="230"/>
    <vehicle id="car_122" type="typeCar" route="WE" depart="232"/>
    <vehicle id="car_123" type="typeCar" route="NS" depart="235"/>
    <vehicle id="car_124" type="typeCar" route="WE" depart="237"/>
    <vehicle id="car_125" type="typeCar" route="NS" depart="242"/>
    <vehicle id="car_126" type="typeCar" route="WE" depart="242"/>
    <vehicle id="car_127" type="typeCar" route="WE" depart="244"/>
    <vehicle id="car_128" type="typeCar" route="NS" depart="248"/>
    <vehicle id="car_129" type="typeCar" route="SN" depart="248"/>
    <vehicle id="car_130" type="typeCar" route="NS" depart="250"/>
    <vehicle id="car_131" type="typeCar" route="WE" depart="254"/>
    <vehicle id="car_132" type="typeCar" route="EW" depart="254"/>
    <vehicle id="car_133" type="typeCar" route="EW" depart="255"/>
    <vehicle id="car_134" type="typeCar" route="SN" depart="256"/>
    <vehicle id="car_135" type="typeCar" route="EW" depart="260"/>
    <vehicle id="car_136" type="typeCar" route="EW" depart="263"/>
    <vehicle id="car_137" type="typeCar" route="WE" depart="264"/>
    <vehicle id="car_138" type="typeCar" route="EW" depart="264"/>
    <vehicle id="car_139" type="typeCar" route="WE" depart="265"/>
    <vehicle id="car_140" type="typeCar" route="WE" depart="266"/>
    <vehicle id="car_141" type="typeCar" route="EW" depart="274"/>
    <vehicle id="car_142" type="typeCar" route="EW" depart="277"/>
    <vehicle id="car_143" type="typeCar" route="EW" depart="279"/>
    <vehicle id="car_144" type="typeCar" route="SN" depart="280"/>
    <vehicle id="car_145" type="typeCar" route="SN" depart="281"/>
    <vehicle id="car_146" type="typeCar" route="WE" depart="281"/>
    <vehicle id="car_147" type="typeCar" route="NS" depart="288"/>
    <vehicle id="car_148" type="typeCar" route="WE" depart="288"/>
    <vehicle id="car_149" type="typeCar" route="EW" depart="290"/>
    <vehicle id="car_150" type="typeCar" route="SN" depart="294"/>
    <vehicle id="car_151" type="typeCar" route="NS" depart="296"/>
    <vehicle id="car_152" type="typeCar" route="SN" depart="300"/>
    <vehicle id="car_153" type="typeCar" route="EW" depart="300"/>
    <vehicle id="car_154" type="typeCar" route="WE" depart="301"/>
    <vehicle id="car_155" type="typeCar" route="EW" depart="302"/>
    <vehicle id="car_156" type="typeCar" route="NS" depart="304"/>
    <vehicle id="car_157" type="typeCar" route="WE" depart="304"/>
    <vehicle id="car_158" type="typeCar" route="EW" depart="306"/>
    <vehicle id="car_159" type="typeCar" route="NS" depart="311"/>
    <vehicle id="car_160" type="typeCar" route="EW" depart="311"/>
    <vehicle id="car_161" type="typeCar" route="EW" depart="314"/>
    <vehicle id="car_162" type="typeCar" route="WE" depart="318"/>
    <vehicle id="car_163" type="typeCar" route="NS" depart="319"/>
    <vehicle id="car_164" type="typeCar" route="SN" depart="326"/>
    <vehicle id="car_165" type="typeCar" route="NS" depart="329"/>
    <vehicle id="car_166" type="typeCar" route="WE" depart="330"/>
    <vehicle id="car_167" type="typeCar" route="EW" depart="333"/>
    <vehicle id="car_168" type="typeCar" route="NS" depart="336"/>
    <vehicle id="car_169" type="typeCar" route="SN" depart="337"/>
    <vehicle id="car_170" type="typeCar" route="SN" depart="340"/>
    <vehicle id="car_171" type="typeCar" route="EW" depart="342"/>
    <vehicle id="car_172" type="typeCar" route="EW" depart="345"/>
    <vehicle id="car_173" type="typeCar" route="SN" depart="346"/>
    <vehicle id="car_174" type="typeCar" route="WE" depart="347"/>
    <vehicle id="car_175" type="typeCar" route="EW" depart="348"/>
    <vehicle id="car_176" type="typeCar" route="WE" depart="350"/>
    <vehicle id="car_177" type="typeCar" route="WE" depart="352"/>
    <vehicle id="car_178" type="typeCar" route="EW" depart="353"/>
    <vehicle id="car_179" type="typeCar" route="NS" depart="355"/>
    <vehicle id="car_180" type="typeCar" route="NS" depart="357"/>
    <vehicle id="car_181" type="typeCar" route="WE" depart="357"/>
    <vehicle id="car_182" type="typeCar" route="WE" depart="358"/>
    <vehicle id="car_183" type="typeCar" route="SN" depart="359"/>
    <vehicle id="car_184" type="typeCar" route="EW" depart="359"/>
    <vehicle id="car_185" type="typeCar" route="WE" depart="360"/>
    <vehicle id="car_186" type="typeCar" route="WE" depart="364"/>
    <vehicle id="car_187" type="typeCar" route="EW" depart="364"/>
    <vehicle id="car_188" type="typeCar" route="WE" depart="366"/>
    <vehicle id="car_189" type="typeCar" route="NS" depart="368"/>
    <vehicle id="car_190" type="typeCar" route="WE" depart="371"/>
    <vehicle id="car_191" type="typeCar" route="WE" depart="372"/>
    <vehicle id="car_192" type="typeCar" route="WE" depart="376"/>
    <vehicle id="car_193" type="typeCar" route="SN" depart="379"/>
    <vehicle id="car_194" type="typeCar" route="EW" depart="379"/>
    <vehicle id="car_195" type="typeCar" route="EW" depart="384"/>
    <vehicle id="car_196" type="typeCar" route="NS" depart="387"/>
    <vehicle id="car_197" type="typeCar" route="SN" depart="388"/>
    <vehicle id="car_198" type="typeCar" route="EW" depart="389"/>
    <vehicle id="car_199" type="typeCar" route="WE" depart="392"/>
    <vehicle id="car_200" type="typeCar" route="NS" depart="393"/>
    <vehicle id="car_201" type="typeCar" route="EW" depart="393"/>
    <vehicle id="car_202" type="typeCar" route="NS" depart="395"/>
    <vehicle id="car_203" type="typeCar" route="WE" depart="396"/>
    <vehicle id="car_204" type="typeCar" route="NS" depart="397"/>
    <vehicle id="car_205" type="typeCar" route="NS" depart="401"/>
    <vehicle id="car_206" type="typeCar" route="NS" depart="403"/>
    <vehicle id="car_207" type="typeCar" route="EW" depart="403"/>
    <vehicle id="car_208" type="typeCar" route="NS" depart="406"/>
    <vehicle id="car_209" type="typeCar" route="WE" depart="406"/>
    <vehicle id="car_210" type="typeCar" route="EW" depart="407"/>
    <vehicle id="car_211" type="typeCar" route="EW" depart="408"/>
    <vehicle id="car_212" type="typeCar" route="WE" depart="409"/>
    <vehicle id="car_213" type="typeCar" route="WE" depart="410"/>
    <vehicle id="car_214" type="typeCar" route="WE" depart="414"/>
    <vehicle id="car_215" type="typeCar" route="EW" depart="415"/>
    <vehicle id="car_216" type="typeCar" route="EW" depart="419"/>
    <vehicle id="car_217" type="typeCar" route="EW" depart="420"/>
    <vehicle id="car_218" type="typeCar" route="NS" depart="424"/>
    <vehicle id="car_219" type="typeCar" route="WE" depart="428"/>
    <vehicle id="car_220" type="typeCar" route="EW" depart="429"/>
    <vehicle id="car_221" type="typeCar" route="NS" depart="430"/>
    <vehicle id="car_222" type="typeCar" route="EW" depart="430"/>
    <vehicle id="car_223" type="typeCar" route="EW" depart="436"/>
    <vehicle id="car_224" type="typeCar" route="WE" depart="437"/>
    <vehicle id="car_225" type="typeCar" route="WE" depart="438"/>
    <vehicle id="car_226" type="typeCar" route="EW" depart="440"/>
    <vehicle id="car_227" type="typeCar" route="WE" depart="442"/>
    <vehicle id="car_228" type="typeCar" route="WE" depart="447"/>
    <vehicle id="car_229" type="typeCar" route="EW" depart="447"/>
    <vehicle id="car_230" type="typeCar" route="NS" depart="453"/>
    <vehicle id="car_231" type="typeCar" route="NS" depart="457"/>
    <vehicle id="car_232" type="typeCar" route="WE" depart="458"/>
    <vehicle id="car_233" type="typeCar" route="NS" depart="461"/>
    <vehicle id="car_234" type="typeCar" route="WE" depart="461"/>
    <vehicle id="car_235" type="typeCar" route="WE" depart="464"/>
    <vehicle id="car_236" type="typeCar" route="WE" depart="468"/>
    <vehicle id="car_237" type="typeCar" route="NS" depart="475"/>
    <vehicle id="car_238" type="typeCar" route="WE" depart="478"/>
    <vehicle id="car_239" type="typeCar" route="WE" depart="479"/>
    <vehicle id="car_240" type="typeCar" route="NS" depart="480"/>
    <vehicle id="car_241" type="typeCar" route="WE" depart="484"/>
    <vehicle id="car_242" type="typeCar" route="EW" depart="488"/>
    <vehicle id="car_243" type="typeCar" route="NS" depart="489"/>
    <vehicle id="car_244" type="typeCar" route="WE" depart="494"/>
    <vehicle id="car_245" type="typeCar" route="SN" depart="496"/>
    <vehicle id="car_246" type="typeCar" route="EW" depart="497"/>
</routes>
