<routes>
        <vType id="typeCar" accel="0.8" decel="4.5" sigma="0.5" length="5" minGap="2.5" maxSpeed="16.67" guiShape="passenger"/>

        <route id="NS" edges="n2A A2s" />
        <route id="WE" edges="w2A A2e" />
        <route id="SN" edges="s2A A2n" />
        <route id="EW" edges="e2A A2w" />
    <vehicle id="car_0" type="typeCar" route="WE" depart="7"/>
    <vehicle id="car_1" type="typeCar" route="WE" depart="10"/>
    <vehicle id="car_2" type="typeCar" route="SN" depart="12"/>
    <vehicle id="car_3" type="typeCar" route="EW" depart="12"/>
    <vehicle id="car_4" type="typeCar" route="SN" depart="17"/>
    <vehicle id="car_5" type="typeCar" route="WE" depart="18"/>
    <vehicle id="car_6" type="typeCar" route="SN" depart="21"/>
    <vehicle id="car_7" type="typeCar" route="SN" depart="22"/>
    <vehicle id="car_8" type="typeCar" route="WE" depart="22"/>
    <vehicle id="car_9" type="typeCar" route="EW" depart="24"/>
    <vehicle id="car_10" type="typeCar" route="WE" depart="27"/>
    <vehicle id="car_11" type="typeCar" route="EW" depart="27"/>
    <vehicle id="car_12" type="typeCar" route="EW" depart="28"/>
    <vehicle id="car_13" type="typeCar" route="WE" depart="29"/>
    <vehicle id="car_14" type="typeCar" route="EW" depart="32"/>
    <vehicle id="car_15" type="typeCar" route="NS" depart="35"/>
    <vehicle id="car_16" type="typeCar" route="EW" depart="35"/>
    <vehicle id="car_17" type="typeCar" route="WE" depart="38"/>
    <vehicle id="car_18" type="typeCar" route="SN" depart="41"/>
    <vehicle id="car_19" type="typeCar" route="EW" depart="45"/>
    <vehicle id="car_20" type="typeCar" route="NS" depart="48"/>
    <vehicle id="car_21" type="typeCar" route="WE" depart="50"/>
    <vehicle id="car_22" type="typeCar" route="WE" depart="51"/>
    <vehicle id="car_23" type="typeCar" route="EW" depart="56"/>
    <vehicle id="car_24" type="typeCar" route="NS" depart="57"/>
    <vehicle id="car_25" type="typeCar" route="NS" depart="58"/>
    <vehicle id="car_26" type="typeCar" route="WE" depart="58"/>
    <vehicle id="car_27" type="typeCar" route="NS" depart="61"/>
    <vehicle id="car_28" type="typeCar" route="WE" depart="61"/>
    <vehicle id="car_29" type="typeCar" route="SN" depart="62"/>
    <vehicle id="car_30" type="typeCar" route="WE" depart="65"/>
    <vehicle id="car_31" type="typeCar" route="WE" depart="68"/>
    <vehicle id="car_32" type="typeCar" route="NS" depart="77"/>
    <vehicle id="car_33" type="typeCar" route="WE" depart="78"/>
    <vehicle id="car_34" type="typeCar" route="WE" depart="79"/>
    <vehicle id="car_35" type="typeCar" route="EW" depart="80"/>
    <vehicle id="car_36" type="typeCar" route="SN" depart="82"/>
    <vehicle id="car_37" type="typeCar" route="EW" depart="84"/>
    <vehicle id="car_38" type="typeCar" route="SN" depart="85"/>
    <vehicle id="car_39" type="typeCar" route="SN" depart="88"/>
    <vehicle id="car_40" type="typeCar" route="EW" depart="88"/>
    <vehicle id="car_41" type="typeCar" route="SN" depart="89"/>
    <vehicle id="car_42" type="typeCar" route="NS" depart="90"/>
    <vehicle id="car_43" type="typeCar" route="WE" depart="91"/>
    <vehicle id="car_44" type="typeCar" route="EW" depart="93"/>
    <vehicle id="car_45" type="typeCar" route="NS" depart="94"/>
    <vehicle id="car_46" type="typeCar" route="WE" depart="94"/>
    <vehicle id="car_47" type="typeCar" route="EW" depart="95"/>
    <vehicle id="car_48" type="typeCar" route="EW" depart="96"/>
    <vehicle id="car_49" type="typeCar" route="EW" depart="101"/>
    <vehicle id="car_50" type="typeCar" route="WE" depart="102"/>
    <vehicle id="car_51" type="typeCar" route="WE" depart="104"/>
    <vehicle id="car_52" type="typeCar" route="NS" depart="105"/>
    <vehicle id="car_53" type="typeCar" route="EW" depart="108"/>
    <vehicle id="car_54" type="typeCar" route="EW" depart="109"/>
    <vehicle id="car_55" type="typeCar" route="NS" depart="118"/>
    <vehicle id="car_56" type="typeCar" route="EW" depart="119"/>
    <vehicle id="car_57" type="typeCar" route="NS" depart="120"/>
    <vehicle id="car_58" type="typeCar" route="EW" depart="125"/>
    <vehicle id="car_59" type="typeCar" route="NS" depart="128"/>
    <vehicle id="car_60" type="typeCar" route="EW" depart="133"/>
    <vehicle id="car_61" type="typeCar" route="WE" depart="139"/>
    <vehicle id="car_62" type="typeCar" route="WE" depart="142"/>
    <vehicle id="car_63" type="typeCar" route="EW" depart="144"/>
    <vehicle id="car_64" type="typeCar" route="EW" depart="146"/>
    <vehicle id="car_65" type="typeCar" route="WE" depart="148"/>
    <vehicle id="car_66" type="typeCar" route="EW" depart="148"/>
    <vehicle id="car_67" type="typeCar" route="NS" depart="149"/>
    <vehicle id="car_68" type="typeCar" route="EW" depart="149"/>
    <vehicle id="car_69" type="typeCar" route="EW" depart="151"/>
    <vehicle id="car_70" type="typeCar" route="SN" depart="152"/>
    <vehicle id="car_71" type="typeCar" route="EW" depart="152"/>
    <vehicle id="car_72" type="typeCar" route="SN" depart="153"/>
    <vehicle id="car_73" type="typeCar" route="WE" depart="154"/>
    <vehicle id="car_74" type="typeCar" route="WE" depart="158"/>
    <vehicle id="car_75" type="typeCar" route="WE" depart="160"/>
    <vehicle id="car_76" type="typeCar" route="WE" depart="162"/>
    <vehicle id="car_77" type="typeCar" route="WE" depart="165"/>
    <vehicle id="car_78" type="typeCar" route="EW" depart="166"/>
    <vehicle id="car_79" type="typeCar" route="NS" depart="167"/>
    <vehicle id="car_80" type="typeCar" route="EW" depart="175"/>
    <vehicle id="car_81" type="typeCar" route="NS" depart="177"/>
    <vehicle id="car_82" type="typeCar" route="WE" depart="177"/>
    <vehicle id="car_83" type="typeCar" route="WE" depart="179"/>
    <vehicle id="car_84" type="typeCar" route="WE" depart="192"/>
    <vehicle id="car_85" type="typeCar" route="EW" depart="194"/>
    <vehicle id="car_86" type="typeCar" route="WE" depart="195"/>
    <vehicle id="car_87" type="typeCar" route="EW" depart="195"/>
    <vehicle id="car_88" type="typeCar" route="EW" depart="196"/>
    <vehicle id="car_89" type="typeCar" route="SN" depart="197"/>
    <vehicle id="car_90" type="typeCar" route="NS" depart="202"/>
    <vehicle id="car_91" type="typeCar" route="EW" depart="206"/>
    <vehicle id="car_92" type="typeCar" route="NS" depart="207"/>
    <vehicle id="car_93" type="typeCar" route="EW" depart="207"/>
    <vehicle id="car_94" type="typeCar" route="WE" depart="210"/>
    <vehicle id="car_95" type="typeCar" route="EW" depart="216"/>
    <vehicle id="car_96" type="typeCar" route="WE" depart="217"/>
    <vehicle id="car_97" type="typeCar" route="EW" depart="217"/>
    <vehicle id="car_98" type="typeCar" route="SN" depart="218"/>
    <vehicle id="car_99" type="typeCar" route="EW" depart="218"/>
    <vehicle id="car_100" type="typeCar" route="WE" depart="219"/>
    <vehicle id="car_101" type="typeCar" route="EW" depart="225"/>
    <vehicle id="car_102" type="typeCar" route="SN" depart="226"/>
    <vehicle id="car_103" type="typeCar" route="EW" depart="227"/>
    <vehicle id="car_104" type="typeCar" route="EW" depart="230"/>
    <vehicle id="car_105" type="typeCar" route="EW" depart="233"/>
    <vehicle id="car_106" type="typeCar" route="EW" depart="239"/>
    <vehicle id="car_107" type="typeCar" route="WE" depart="240"/>
    <vehicle id="car_108" type="typeCar" route="NS" depart="241"/>
    <vehicle id="car_109" type="typeCar" route="NS" depart="244"/>
    <vehicle id="car_110" type="typeCar" route="SN" depart="244"/>
    <vehicle id="car_111" type="typeCar" route="EW" depart="244"/>
    <vehicle id="car_112" type="typeCar" route="EW" depart="245"/>
    <vehicle id="car_113" type="typeCar" route="WE" depart="246"/>
    <vehicle id="car_114" type="typeCar" route="NS" depart="247"/>
    <vehicle id="car_115" type="typeCar" route="WE" depart="248"/>
    <vehicle id="car_116" type="typeCar" route="NS" depart="253"/>
    <vehicle id="car_117" type="typeCar" route="WE" depart="254"/>
    <vehicle id="car_118" type="typeCar" route="NS" depart="256"/>
    <vehicle id="car_119" type="typeCar" route="WE" depart="257"/>
    <vehicle id="car_120" type="typeCar" route="WE" depart="259"/>
    <vehicle id="car_121" type="typeCar" route="EW" depart="260"/>
    <vehicle id="car_122" type="typeCar" route="EW" depart="261"/>
    <vehicle id="car_123" type="typeCar" route="NS" depart="262"/>
    <vehicle id="car_124" type="typeCar" route="WE" depart="263"/>
    <vehicle id="car_125" type="typeCar" route="EW" depart="266"/>
    <vehicle id="car_126" type="typeCar" route="NS" depart="267"/>
    <vehicle id="car_127" type="typeCar" route="SN" depart="269"/>
    <vehicle id="car_128" type="typeCar" route="WE" depart="271"/>
    <vehicle id="car_129" type="typeCar" route="NS" depart="274"/>
    <vehicle id="car_130" type="typeCar" route="EW" depart="274"/>
    <vehicle id="car_131" type="typeCar" route="NS" depart="278"/>
    <vehicle id="car_132" type="typeCar" route="EW" depart="280"/>
    <vehicle id="car_133" type="typeCar" route="WE" depart="281"/>
    <vehicle id="car_134" type="typeCar" route="WE" depart="287"/>
    <vehicle id="car_135" type="typeCar" route="EW" depart="287"/>
    <vehicle id="car_136" type="typeCar" route="SN" depart="290"/>
    <vehicle id="car_137" type="typeCar" route="EW" depart="291"/>
    <vehicle id="car_138" type="typeCar" route="WE" depart="292"/>
    <vehicle id="car_139" type="typeCar" route="NS" depart="296"/>
    <vehicle id="car_140" type="typeCar" route="EW" depart="297"/>
    <vehicle id="car_141" type="typeCar" route="SN" depart="301"/>
    <vehicle id="car_142" type="typeCar" route="WE" depart="303"/>
    <vehicle id="car_143" type="typeCar" route="SN" depart="304"/>
    <vehicle id="car_144" type="typeCar" route="WE" depart="304"/>
    <vehicle id="car_145" type="typeCar" route="SN" depart="305"/>
    <vehicle id="car_146" type="typeCar" route="WE" depart="306"/>
    <vehicle id="car_147" type="typeCar" route="NS" depart="307"/>
    <vehicle id="car_148" type="typeCar" route="NS" depart="308"/>
    <vehicle id="car_149" type="typeCar" route="NS" depart="310"/>
    <vehicle id="car_150" type="typeCar" route="SN" depart="311"/>
    <vehicle id="car_151" type="typeCar" route="SN" depart="312"/>
    <vehicle id="car_152" type="typeCar" route="WE" depart="312"/>
    <vehicle id="car_153" type="typeCar" route="EW" depart="317"/>
    <vehicle id="car_154" type="typeCar" route="NS" depart="318"/>
    <vehicle id="car_155" type="typeCar" route="WE" depart="320"/>
    <vehicle id="car_156" type="typeCar" route="EW" depart="320"/>
    <vehicle id="car_157" type="typeCar" route="WE" depart="321"/>
    <vehicle id="car_158" type="typeCar" route="EW" depart="322"/>
    <vehicle id="car_159" type="typeCar" route="NS" depart="329"/>
    <vehicle id="car_160" type="typeCar" route="SN" depart="330"/>
    <vehicle id="car_161" type="typeCar" route="EW" depart="333"/>
    <vehicle id="car_162" type="typeCar" route="NS" depart="335"/>
    <vehicle id="car_163" type="typeCar" route="SN" depart="339"/>
    <vehicle id="car_164" type="typeCar" route="WE" depart="340"/>
    <vehicle id="car_165" type="typeCar" route="EW" depart="343"/>
    <vehicle id="car_166" type="typeCar" route="NS" depart="347"/>
    <vehicle id="car_167" type="typeCar" route="WE" depart="347"/>
    <vehicle id="car_168" type="typeCar" route="NS" depart="353"/>
    <vehicle id="car_169" type="typeCar" route="WE" depart="355"/>
    <vehicle id="car_170" type="typeCar" route="SN" depart="357"/>
    <vehicle id="car_171" type="typeCar" route="SN" depart="358"/>
    <vehicle id="car_172" type="typeCar" route="WE" depart="360"/>
    <vehicle id="car_173" type="typeCar" route="EW" depart="365"/>
    <vehicle id="car_174" type="typeCar" route="WE" depart="368"/>
    <vehicle id="car_175" type="typeCar" route="WE" depart="370"/>
    <vehicle id="car_176" type="typeCar" route="EW" depart="370"/>
    <vehicle id="car_177" type="typeCar" route="WE" depart="374"/>
    <vehicle id="car_178" type="typeCar" route="NS" depart="379"/>
    <vehicle id="car_179" type="typeCar" route="NS" depart="382"/>
    <vehicle id="car_180" type="typeCar" route="WE" depart="382"/>
    <vehicle id="car_181" type="typeCar" route="WE" depart="389"/>
    <vehicle id="car_182" type="typeCar" route="NS" depart="390"/>
    <vehicle id="car_183" type="typeCar" route="EW" depart="393"/>
    <vehicle id="car_184" type="typeCar" route="WE" depart="397"/>
    <vehicle id="car_185" type="typeCar" route="EW" depart="397"/>
    <vehicle id="car_186" type="typeCar" route="SN" depart="398"/>
    <vehicle id="car_187" type="typeCar" route="WE" depart="399"/>
    <vehicle id="car_188" type="typeCar" route="NS" depart="403"/>
    <vehicle id="car_189" type="typeCar" route="SN" depart="403"/>
    <vehicle id="car_190" type="typeCar" route="WE" depart="404"/>
    <vehicle id="car_191" type="typeCar" route="WE" depart="405"/>
    <vehicle id="car_192" type="typeCar" route="EW" depart="409"/>
    <vehicle id="car_193" type="typeCar" route="NS" depart="414"/>
    <vehicle id="car_194" type="typeCar" route="SN" depart="416"/>
    <vehicle id="car_195" type="typeCar" route="EW" depart="419"/>
    <vehicle id="car_196" type="typeCar" route="SN" depart="421"/>
    <vehicle id="car_197" type="typeCar" route="EW" depart="422"/>
    <vehicle id="car_198" type="typeCar" route="WE" depart="425"/>
    <vehicle id="car_199" type="typeCar" route="NS" depart="426"/>
    <vehicle id="car_200" type="typeCar" route="NS" depart="427"/>
    <vehicle id="car_201" type="typeCar" route="WE" depart="429"/>
    <vehicle id="car_202" type="typeCar" route="NS" depart="434"/>
    <vehicle id="car_203" type="typeCar" route="EW" depart="438"/>
    <vehicle id="car_204" type="typeCar" route="NS" depart="439"/>
    <vehicle id="car_205" type="typeCar" route="NS" depart="441"/>
    <vehicle id="car_206" type="typeCar" route="EW" depart="443"/>
    <vehicle id="car_207" type="typeCar" route="NS" depart="446"/>
    <vehicle id="car_208" type="typeCar" route="SN" depart="446"/>
    <vehicle id="car_209" type="typeCar" route="NS" depart="447"/>
    <vehicle id="car_210" type="typeCar" route="EW" depart="451"/>
    <vehicle id="car_211" type="typeCar" route="EW" depart="455"/>
    <vehicle id="car_212" type="typeCar" route="SN" depart="458"/>
    <vehicle id="car_213" type="typeCar" route="SN" depart="459"/>
    <vehicle id="car_214" type="typeCar" route="NS" depart="464"/>
    <vehicle id="car_215" type="typeCar" route="WE" depart="464"/>
    <vehicle id="car_216" type="typeCar" route="NS" depart="466"/>
    <vehicle id="car_217" type="typeCar" route="EW" depart="468"/>
    <vehicle id="car_218" type="typeCar" route="SN" depart="469"/>
    <vehicle id="car_219" type="typeCar" route="SN" depart="474"/>
    <vehicle id="car_220" type="typeCar" route="EW" depart="475"/>
    <vehicle id="car_221" type="typeCar" route="SN" depart="477"/>
    <vehicle id="car_222" type="typeCar" route="EW" depart="477"/>
    <vehicle id="car_223" type="typeCar" route="NS" depart="479"/>
    <vehicle id="car_224" type="typeCar" route="EW" depart="480"/>
    <vehicle id="car_225" type="typeCar" route="WE" depart="482"/>
    <vehicle id="car_226" type="typeCar" route="NS" depart="484"/>
    <vehicle id="car_227" type="typeCar" route="WE" depart="485"/>
    <vehicle id="car_228" type="typeCar" route="EW" depart="491"/>
    <vehicle id="car_229" type="typeCar" route="WE" depart="494"/>
    <vehicle id="car_230" type="typeCar" route="NS" depart="496"/>
    <vehicle id="car_231" type="typeCar" route="WE" depart="496"/>
    <vehicle id="car_232" type="typeCar" route="WE" depart="499"/>
    <vehicle id="car_233" type="typeCar" route="EW" depart="499"/>
</routes>
