<routes>
        <vType id="typeCar" accel="0.8" decel="4.5" sigma="0.5" length="5" minGap="2.5" maxSpeed="16.67" guiShape="passenger"/>

        <route id="NS" edges="n2A A2s" />
        <route id="WE" edges="w2A A2e" />
        <route id="SN" edges="s2A A2n" />
        <route id="EW" edges="e2A A2w" />
    <vehicle id="car_0" type="typeCar" route="WE" depart="1"/>
    <vehicle id="car_1" type="typeCar" route="EW" depart="1"/>
    <vehicle id="car_2" type="typeCar" route="WE" depart="7"/>
    <vehicle id="car_3" type="typeCar" route="WE" depart="8"/>
    <vehicle id="car_4" type="typeCar" route="WE" depart="10"/>
    <vehicle id="car_5" type="typeCar" route="NS" depart="12"/>
    <vehicle id="car_6" type="typeCar" route="EW" depart="20"/>
    <vehicle id="car_7" type="typeCar" route="WE" depart="23"/>
    <vehicle id="car_8" type="typeCar" route="EW" depart="25"/>
    <vehicle id="car_9" type="typeCar" route="SN" depart="27"/>
    <vehicle id="car_10" type="typeCar" route="NS" depart="31"/>
    <vehicle id="car_11" type="typeCar" route="NS" depart="35"/>
    <vehicle id="car_12" type="typeCar" route="NS" depart="43"/>
    <vehicle id="car_13" type="typeCar" route="NS" depart="44"/>
    <vehicle id="car_14" type="typeCar" route="EW" depart="44"/>
    <vehicle id="car_15" type="typeCar" route="SN" depart="45"/>
    <vehicle id="car_16" type="typeCar" route="NS" depart="46"/>
    <vehicle id="car_17" type="typeCar" route="EW" depart="47"/>
    <vehicle id="car_18" type="typeCar" route="NS" depart="50"/>
    <vehicle id="car_19" type="typeCar" route="WE" depart="51"/>
    <vehicle id="car_20" type="typeCar" route="WE" depart="55"/>
    <vehicle id="car_21" type="typeCar" route="EW" depart="55"/>
    <vehicle id="car_22" type="typeCar" route="NS" depart="56"/>
    <vehicle id="car_23" type="typeCar" route="WE" depart="62"/>
    <vehicle id="car_24" type="typeCar" route="EW" depart="63"/>
    <vehicle id="car_25" type="typeCar" route="WE" depart="65"/>
    <vehicle id="car_26" type="typeCar" route="WE" depart="67"/>
    <vehicle id="car_27" type="typeCar" route="WE" depart="71"/>
    <vehicle id="car_28" type="typeCar" route="EW" depart="77"/>
    <vehicle id="car_29" type="typeCar" route="WE" depart="79"/>
    <vehicle id="car_30" type="typeCar" route="WE" depart="81"/>
    <vehicle id="car_31" type="typeCar" route="WE" depart="85"/>
    <vehicle id="car_32" type="typeCar" route="EW" depart="87"/>
    <vehicle id="car_33" type="typeCar" route="EW" depart="98"/>
    <vehicle id="car_34" type="typeCar" route="WE" depart="101"/>
    <vehicle id="car_35" type="typeCar" route="EW" depart="103"/>
    <vehicle id="car_36" type="typeCar" route="NS" depart="106"/>
    <vehicle id="car_37" type="typeCar" route="NS" depart="109"/>
    <vehicle id="car_38" type="typeCar" route="EW" depart="111"/>
    <vehicle id="car_39" type="typeCar" route="WE" depart="113"/>
    <vehicle id="car_40" type="typeCar" route="SN" depart="114"/>
    <vehicle id="car_41" type="typeCar" route="EW" depart="118"/>
    <vehicle id="car_42" type="typeCar" route="NS" depart="120"/>
    <vehicle id="car_43" type="typeCar" route="WE" depart="121"/>
    <vehicle id="car_44" type="typeCar" route="NS" depart="123"/>
    <vehicle id="car_45" type="typeCar" route="WE" depart="123"/>
    <vehicle id="car_46" type="typeCar" route="EW" depart="123"/>
    <vehicle id="car_47" type="typeCar" route="WE" depart="125"/>
    <vehicle id="car_48" type="typeCar" route="NS" depart="126"/>
    <vehicle id="car_49" type="typeCar" route="NS" depart="129"/>
    <vehicle id="car_50" type="typeCar" route="EW" depart="129"/>
    <vehicle id="car_51" type="typeCar" route="NS" depart="130"/>
    <vehicle id="car_52" type="typeCar" route="WE" depart="136"/>
    <vehicle id="car_53" type="typeCar" route="EW" depart="139"/>
    <vehicle id="car_54" type="typeCar" route="WE" depart="140"/>
    <vehicle id="car_55" type="typeCar" route="WE" depart="141"/>
    <vehicle id="car_56" type="typeCar" route="SN" depart="142"/>
    <vehicle id="car_57" type="typeCar" route="NS" depart="145"/>
    <vehicle id="car_58" type="typeCar" route="WE" depart="145"/>
    <vehicle id="car_59" type="typeCar" route="EW" depart="145"/>
    <vehicle id="car_60" type="typeCar" route="EW" depart="146"/>
    <vehicle id="car_61" type="typeCar" route="SN" depart="149"/>
    <vehicle id="car_62" type="typeCar" route="WE" depart="149"/>
    <vehicle id="car_63" type="typeCar" route="NS" depart="153"/>
    <vehicle id="car_64" type="typeCar" route="WE" depart="155"/>
    <vehicle id="car_65" type="typeCar" route="EW" depart="156"/>
    <vehicle id="car_66" type="typeCar" route="EW" depart="157"/>
    <vehicle id="car_67" type="typeCar" route="EW" depart="161"/>
    <vehicle id="car_68" type="typeCar" route="EW" depart="162"/>
    <vehicle id="car_69" type="typeCar" route="NS" depart="163"/>
    <vehicle id="car_70" type="typeCar" route="EW" depart="165"/>
    <vehicle id="car_71" type="typeCar" route="WE" depart="167"/>
    <vehicle id="car_72" type="typeCar" route="SN" depart="169"/>
    <vehicle id="car_73" type="typeCar" route="NS" depart="173"/>
    <vehicle id="car_74" type="typeCar" route="SN" depart="179"/>
    <vehicle id="car_75" type="typeCar" route="NS" depart="187"/>
    <vehicle id="car_76" type="typeCar" route="NS" depart="191"/>
    <vehicle id="car_77" type="typeCar" route="EW" depart="196"/>
    <vehicle id="car_78" type="typeCar" route="NS" depart="197"/>
    <vehicle id="car_79" type="typeCar" route="WE" depart="198"/>
    <vehicle id="car_80" type="typeCar" route="EW" depart="198"/>
    <vehicle id="car_81" type="typeCar" route="EW" depart="201"/>
    <vehicle id="car_82" type="typeCar" route="SN" depart="203"/>
    <vehicle id="car_83" type="typeCar" route="WE" depart="203"/>
    <vehicle id="car_84" type="typeCar" route="EW" depart="203"/>
    <vehicle id="car_85" type="typeCar" route="WE" depart="207"/>
    <vehicle id="car_86" type="typeCar" route="WE" depart="210"/>
    <vehicle id="car_87" type="typeCar" route="SN" depart="211"/>
    <vehicle id="car_88" type="typeCar" route="WE" depart="211"/>
    <vehicle id="car_89" type="typeCar" route="NS" depart="213"/>
    <vehicle id="car_90" type="typeCar" route="EW" depart="215"/>
    <vehicle id="car_91" type="typeCar" route="WE" depart="219"/>
    <vehicle id="car_92" type="typeCar" route="EW" depart="219"/>
    <vehicle id="car_93" type="typeCar" route="NS" depart="221"/>
    <vehicle id="car_94" type="typeCar" route="WE" depart="221"/>
    <vehicle id="car_95" type="typeCar" route="EW" depart="221"/>
    <vehicle id="car_96" type="typeCar" route="EW" depart="222"/>
    <vehicle id="car_97" type="typeCar" route="EW" depart="224"/>
    <vehicle id="car_98" type="typeCar" route="NS" depart="228"/>
    <vehicle id="car_99" type="typeCar" route="WE" depart="234"/>
    <vehicle id="car_100" type="typeCar" route="NS" depart="236"/>
    <vehicle id="car_101" type="typeCar" route="NS" depart="238"/>
    <vehicle id="car_102" type="typeCar" route="EW" depart="240"/>
    <vehicle id="car_103" type="typeCar" route="NS" depart="243"/>
    <vehicle id="car_104" type="typeCar" route="WE" depart="243"/>
    <vehicle id="car_105" type="typeCar" route="EW" depart="243"/>
    <vehicle id="car_106" type="typeCar" route="WE" depart="245"/>
    <vehicle id="car_107" type="typeCar" route="WE" depart="248"/>
    <vehicle id="car_108" type="typeCar" route="WE" depart="250"/>
    <vehicle id="car_109" type="typeCar" route="NS" depart="252"/>
    <vehicle id="car_110" type="typeCar" route="NS" depart="254"/>
    <vehicle id="car_111" type="typeCar" route="EW" depart="255"/>
    <vehicle id="car_112" type="typeCar" route="SN" depart="257"/>
    <vehicle id="car_113" type="typeCar" route="EW" depart="260"/>
    <vehicle id="car_114" type="typeCar" route="EW" depart="262"/>
    <vehicle id="car_115" type="typeCar" route="WE" depart="263"/>
    <vehicle id="car_116" type="typeCar" route="WE" depart="266"/>
    <vehicle id="car_117" type="typeCar" route="NS" depart="271"/>
    <vehicle id="car_118" type="typeCar" route="WE" depart="271"/>
    <vehicle id="car_119" type="typeCar" route="WE" depart="272"/>
    <vehicle id="car_120" type="typeCar" route="WE" depart="273"/>
    <vehicle id="car_121" type="typeCar" route="EW" depart="275"/>
    <vehicle id="car_122" type="typeCar" route="EW" depart="276"/>
    <vehicle id="car_123" type="typeCar" route="NS" depart="277"/>
    <vehicle id="car_124" type="typeCar" route="EW" depart="277"/>
    <vehicle id="car_125" type="typeCar" route="EW" depart="281"/>
    <vehicle id="car_126" type="typeCar" route="WE" depart="282"/>
    <vehicle id="car_127" type="typeCar" route="EW" depart="282"/>
    <vehicle id="car_128" type="typeCar" route="WE" depart="286"/>
    <vehicle id="car_129" type="typeCar" route="EW" depart="286"/>
    <vehicle id="car_130" type="typeCar" route="EW" depart="297"/>
    <vehicle id="car_131" type="typeCar" route="WE" depart="298"/>
    <vehicle id="car_132" type="typeCar" route="SN" depart="300"/>
    <vehicle id="car_133" type="typeCar" route="NS" depart="301"/>
    <vehicle id="car_134" type="typeCar" route="SN" depart="301"/>
    <vehicle id="car_135" type="typeCar" route="EW" depart="303"/>
    <vehicle id="car_136" type="typeCar" route="WE" depart="306"/>
    <vehicle id="car_137" type="typeCar" route="NS" depart="317"/>
    <vehicle id="car_138" type="typeCar" route="EW" depart="319"/>
    <vehicle id="car_139" type="typeCar" route="NS" depart="321"/>
    <vehicle id="car_140" type="typeCar" route="EW" depart="322"/>
    <vehicle id="car_141" type="typeCar" route="WE" depart="323"/>
    <vehicle id="car_142" type="typeCar" route="EW" depart="326"/>
    <vehicle id="car_143" type="typeCar" route="NS" depart="328"/>
    <vehicle id="car_144" type="typeCar" route="EW" depart="329"/>
    <vehicle id="car_145" type="typeCar" route="EW" depart="332"/>
    <vehicle id="car_146" type="typeCar" route="NS" depart="340"/>
    <vehicle id="car_147" type="typeCar" route="WE" depart="342"/>
    <vehicle id="car_148" type="typeCar" route="NS" depart="345"/>
    <vehicle id="car_149" type="typeCar" route="EW" depart="346"/>
    <vehicle id="car_150" type="typeCar" route="NS" depart="349"/>
    <vehicle id="car_151" type="typeCar" route="EW" depart="349"/>
    <vehicle id="car_152" type="typeCar" route="NS" depart="350"/>
    <vehicle id="car_153" type="typeCar" route="WE" depart="350"/>
    <vehicle id="car_154" type="typeCar" route="NS" depart="360"/>
    <vehicle id="car_155" type="typeCar" route="EW" depart="368"/>
    <vehicle id="car_156" type="typeCar" route="NS" depart="377"/>
    <vehicle id="car_157" type="typeCar" route="WE" depart="379"/>
    <vehicle id="car_158" type="typeCar" route="NS" depart="380"/>
    <vehicle id="car_159" type="typeCar" route="NS" depart="381"/>
    <vehicle id="car_160" type="typeCar" route="NS" depart="387"/>
    <vehicle id="car_161" type="typeCar" route="WE" depart="387"/>
    <vehicle id="car_162" type="typeCar" route="EW" depart="388"/>
    <vehicle id="car_163" type="typeCar" route="WE" depart="391"/>
    <vehicle id="car_164" type="typeCar" route="EW" depart="391"/>
    <vehicle id="car_165" type="typeCar" route="EW" depart="394"/>
    <vehicle id="car_166" type="typeCar" route="WE" depart="398"/>
    <vehicle id="car_167" type="typeCar" route="SN" depart="399"/>
    <vehicle id="car_168" type="typeCar" route="NS" depart="403"/>
    <vehicle id="car_169" type="typeCar" route="EW" depart="404"/>
    <vehicle id="car_170" type="typeCar" route="NS" depart="405"/>
    <vehicle id="car_171" type="typeCar" route="EW" depart="405"/>
    <vehicle id="car_172" type="typeCar" route="NS" depart="407"/>
    <vehicle id="car_173" type="typeCar" route="EW" depart="413"/>
    <vehicle id="car_174" type="typeCar" route="EW" depart="414"/>
    <vehicle id="car_175" type="typeCar" route="WE" depart="416"/>
    <vehicle id="car_176" type="typeCar" route="NS" depart="418"/>
    <vehicle id="car_177" type="typeCar" route="EW" depart="420"/>
    <vehicle id="car_178" type="typeCar" route="WE" depart="423"/>
    <vehicle id="car_179" type="typeCar" route="WE" depart="424"/>
    <vehicle id="car_180" type="typeCar" route="SN" depart="427"/>
    <vehicle id="car_181" type="typeCar" route="WE" depart="428"/>
    <vehicle id="car_182" type="typeCar" route="WE" depart="429"/>
    <vehicle id="car_183" type="typeCar" route="EW" depart="430"/>
    <vehicle id="car_184" type="typeCar" route="NS" depart="431"/>
    <vehicle id="car_185" type="typeCar" route="EW" depart="432"/>
    <vehicle id="car_186" type="typeCar" route="EW" depart="433"/>
    <vehicle id="car_187" type="typeCar" route="EW" depart="436"/>
    <vehicle id="car_188" type="typeCar" route="SN" depart="437"/>
    <vehicle id="car_189" type="typeCar" route="WE" depart="439"/>
    <vehicle id="car_190" type="typeCar" route="NS" depart="440"/>
    <vehicle id="car_191" type="typeCar" route="WE" depart="440"/>
    <vehicle id="car_192" type="typeCar" route="EW" depart="441"/>
    <vehicle id="car_193" type="typeCar" route="EW" depart="442"/>
    <vehicle id="car_194" type="typeCar" route="EW" depart="444"/>
    <vehicle id="car_195" type="typeCar" route="NS" depart="445"/>
    <vehicle id="car_196" type="typeCar" route="WE" depart="446"/>
    <vehicle id="car_197" type="typeCar" route="NS" depart="448"/>
    <vehicle id="car_198" type="typeCar" route="WE" depart="449"/>
    <vehicle id="car_199" type="typeCar" route="NS" depart="453"/>
    <vehicle id="car_200" type="typeCar" route="EW" depart="455"/>
    <vehicle id="car_201" type="typeCar" route="SN" depart="458"/>
    <vehicle id="car_202" type="typeCar" route="EW" depart="461"/>
    <vehicle id="car_203" type="typeCar" route="NS" depart="463"/>
    <vehicle id="car_204" type="typeCar" route="EW" depart="463"/>
    <vehicle id="car_205" type="typeCar" route="WE" depart="466"/>
    <vehicle id="car_206" type="typeCar" route="EW" depart="468"/>
    <vehicle id="car_207" type="typeCar" route="WE" depart="471"/>
    <vehicle id="car_208" type="typeCar" route="WE" depart="472"/>
    <vehicle id="car_209" type="typeCar" route="SN" depart="474"/>
    <vehicle id="car_210" type="typeCar" route="NS" depart="476"/>
    <vehicle id="car_211" type="typeCar" route="WE" depart="479"/>
    <vehicle id="car_212" type="typeCar" route="EW" depart="481"/>
    <vehicle id="car_213" type="typeCar" route="NS" depart="482"/>
    <vehicle id="car_214" type="typeCar" route="EW" depart="485"/>
    <vehicle id="car_215" type="typeCar" route="EW" depart="486"/>
    <vehicle id="car_216" type="typeCar" route="WE" depart="489"/>
    <vehicle id="car_217" type="typeCar" route="WE" depart="491"/>
    <vehicle id="car_218" type="typeCar" route="NS" depart="494"/>
    <vehicle id="car_219" type="typeCar" route="EW" depart="495"/>
    <vehicle id="car_220" type="typeCar" route="NS" depart="496"/>
    <vehicle id="car_221" type="typeCar" route="EW" depart="496"/>
    <vehicle id="car_222" type="typeCar" route="WE" depart="497"/>
    <vehicle id="car_223" type="typeCar" route="WE" depart="499"/>
</routes>
